ID FEMAP,FEMAP
SOL SESTATICS
TIME 10000
CEND
  ECHO = NONE
  DISPLACEMENT(PLOT) = ALL
  SPCFORCE(PLOT) = ALL
  OLOAD(PLOT) = ALL
  FORCE(PLOT,CORNER) = ALL
  STRESS(PLOT,CORNER) = ALL
BEGIN BULK
$ ***************************************************************************
$   Written by : FEMAP
$   Version    : 7.00
$   Translator : MSC/NASTRAN
$   From Model : 
$   Date       : Mon Mar 31 16:36:46 2008
$ ***************************************************************************
$
PARAM,POST,-1
PARAM,OGEOM,NO
PARAM,AUTOSPC,YES
PARAM,GRDPNT,0
CORD2C         1       0      0.      0.      0.      0.      0.      1.+FEMAPC1
+FEMAPC1      1.      0.      1.
CORD2S         2       0      0.      0.      0.      0.      0.      1.+FEMAPC2
+FEMAPC2      1.      0.      1.
$ FEMAP Coordinate System 3 : Untitled
CORD2C         3       0      0.      0.      0.      0.      0.      1.+CS    3
+CS    3      1.      0.      0.
$ FEMAP Coordinate System 4 : Untitled
CORD2S         4       0      0.      0.      0.      0.      0.      1.+CS    4
+CS    4      1.      0.      0.
$ FEMAP Property 1 : Untitled
PSOLID         1       2       0        
$ FEMAP Property 3 : Emitter
PSOLID         3       2       0        
$ FEMAP Material 2 : Untitled
MAT1           2                              0.      0.      0.        
GRID           1       00.017501 -0.0594  -1.581       0        
GRID           2       00.012375-0.05545  -1.581       0        
GRID           3       0      0. -0.0521-1.57103       0        
GRID           4       0      0. -0.0521-1.56106       0        
GRID           5       0      0. -0.0521 -1.5511       0        
GRID           6       0      0. -0.0521-1.52119       0        
GRID           7       0      0. -0.0521-1.50125       0        
GRID           8       0      0. -0.0521-1.48132       0        
GRID           9       0      0. -0.0521-1.44144       0        
GRID          10       0      0. -0.0521-1.42151       0        
GRID          11       0      0. -0.0521-1.41154       0        
GRID          12       0      0. -0.0521-1.40157       0        
GRID          13       0      0. -0.0521 -1.3916       0        
GRID          14       0      0. -0.0521-1.38163       0        
GRID          15       0      0. -0.0521-1.37167       0        
GRID          16       0      0. -0.0521 -1.3617       0        
GRID          17       0      0. -0.0521-1.35173       0        
GRID          18       0      0. -0.0521-1.34176       0        
GRID          19       0      0. -0.0521-1.33179       0        
GRID          20       0      0. -0.0521-1.32183       0        
$ ... 522 like lines cut
GRID         543       0      0.0.004916  -5.E-3       0        
GRID         544       0      0.0.035366  -5.E-3       0        
GRID         545       0      0.0.045516  -0.015       0        
GRID         546       0      0.0.033016  -0.025       0        
GRID         547       0      0.0.012444 -0.0583       0        
GRID         548       0      0.0.007062 -0.0806       0        
GRID         549       0      0.0.004371 -0.0917       0        
GRID         550       0      0.0.001681-0.10278       0        
GRID         551       0      0.-1.01E-3-0.11389       0        
GRID         552       0      0.-6.39E-3-0.13611       0        
GRID         553       0      0.-9.08E-3-0.14722       0        
GRID         554       0      0. -0.0118-0.15833       0        
GRID         555       0      0. -0.0172-0.18056       0        
GRID         556       0      0. -0.0225-0.20278       0        
GRID         557       0      0. -0.0252-0.21389       0        
GRID         558       0      0. -0.0279  -0.225       0        
GRID         559       0      0. -0.0306-0.23611       0        
GRID         560       0      0.-0.03868-0.26944       0        
GRID         561       0      0. -0.0414-0.28056       0        
GRID         562       0      0. -0.0441-0.29167       0        
GRID         563       0      0. -0.0521-0.33497       0        
GRID         564       0      0. -0.0521-0.37484       0        
$ ... 989 like lines cut
GRID        1554       0 0.086550.009666  -5.E-3       0        
GRID        1555       00.0793730.002489  -5.E-3       0        
GRID        1556       00.072196-4.69E-3  -5.E-3       0        
GRID        1557       00.065018 -0.0119  -5.E-3       0        
GRID        1558       00.050664-0.02622  -5.E-3       0        
GRID        1559       00.043487 -0.0334  -5.E-3       0        
GRID        1560       00.021832 -0.0551 -0.0217       0        
GRID        1561       00.011667 -0.0652  -0.025       0        
GRID        1562       0      0. -0.0769  -0.035       0        
GRID        1563       0      0. -0.0769  -0.045       0        
GRID        1564       0      0. -0.0769  -0.085       0        
GRID        1565       0      0. -0.0769  -0.095       0        
GRID        1566       0      0. -0.0769  -0.125       0        
GRID        1567       0      0. -0.0769  -0.135       0        
GRID        1568       0      0. -0.0769  -0.145       0        
GRID        1569       0      0. -0.0769  -0.155       0        
GRID        1570       0      0. -0.0769  -0.215       0        
GRID        1571       0      0. -0.0769  -0.225       0        
GRID        1572       0      0. -0.0769  -0.235       0        
GRID        1573       0      0. -0.0769  -0.245       0        
GRID        1574       0      0. -0.0769  -0.255       0        
GRID        1575       0      0. -0.0769  -0.265       0        
GRID        1576       0      0. -0.0769  -0.275       0        
GRID        1577       0      0. -0.0769  -0.285       0        
GRID        1578       0      0. -0.0769  -0.295       0        
GRID        1579       0      0. -0.0769  -0.305       0        
$ ... 1163 like lines cut
GRID        2743       00.057841  -0.019  -5.E-3       0        
GRID        2744       00.0807040.015141  -5.E-3       0        
GRID        2745       00.0745120.020222  -5.E-3       0        
GRID        2746       0  0.06120.029117  -5.E-3       0        
GRID        2747       00.0238790.043164  -5.E-3       0        
GRID        2748       0      0.0.025216  -5.E-3       0        
GRID        2749       0      0.0.015066  -5.E-3       0        
GRID        2750       0      0.-5.23E-3  -5.E-3       0        
GRID        2751       0      0. -0.0154  -5.E-3       0        
GRID        2752       00.0269260.035157  -5.E-3       0        
GRID        2753       00.0300530.027244  -5.E-3       0        
GRID        2754       00.0332240.019324  -5.E-3       0        
GRID        2755       00.0362590.011034  -5.E-3       0        
GRID        2756       00.0395850.002301  -5.E-3       0        
GRID        2757       00.043525-6.76E-3  -5.E-3       0        
GRID        2758       00.047458 -0.0164  -5.E-3       0        
GRID        2759       00.0469690.027322  -5.E-3       0        
GRID        2760       00.0513710.018277  -5.E-3       0        
GRID        2761       00.0537130.009084  -5.E-3       0        
GRID        2762       0 0.056420.001599  -5.E-3       0        
$ ... 39 like lines cut
GRID        2802       00.029312 -0.0387  -1.581       0        
GRID        2803       00.018426 -0.0324  -1.581       0        
GRID        2804       00.012462 -0.0304  -1.581       0        
GRID        2805       00.006285 -0.0292  -1.581       0        
GRID        2806       0      0. -0.0443  -1.581       0        
GRID        2807       00.006406  -0.053  -1.581       0        
GRID        2808       00.021694 -0.0454  -1.581       0        
GRID        2809       00.014085-0.04288  -1.581       0        
GRID        2810       00.006915 -0.0393  -1.581       0        
GRID        2811       00.014662  -0.051  -1.581       0        
GRID        2812       00.007192  -0.047  -1.581       0        
GRID        2813       00.020124 -0.0383  -1.581       0        
GRID        2814       00.013044-0.03538  -1.581       0        
GRID        2815       00.029312 -0.0387  -1.869       0        
GRID        2816       00.024075 -0.0352  -1.869       0        
GRID        2817       00.012462 -0.0304  -1.869       0        
GRID        2818       0      0. -0.0287  -1.869       0        
GRID        2819       0      0. -0.0287  -1.829       0        
GRID        2820       0      0. -0.0287  -1.813       0        
GRID        2821       0      0. -0.0287  -1.805       0        
$ ... 229 like lines cut
GRID        3051       0      0.0.045516  -5.E-3       0        
GRID        3052       00.0080050.045254  -5.E-3       0        
GRID        3053       00.0159760.044469  -5.E-3       0        
GRID        3054       00.0316790.041345  -5.E-3       0        
GRID        3055       00.039344 0.03902  -5.E-3       0        
GRID        3056       0 0.046840.036199  -5.E-3       0        
GRID        3057       00.0541360.032893  -5.E-3       0        
GRID        3058       00.0680020.024888  -5.E-3       0        
GRID        3059       0 0.086550.009666  -0.015       0        
GRID        3060       00.0807040.015141  -0.025       0        
GRID        3061       00.0745120.020222  -0.025       0        
GRID        3062       00.0680020.024888  -0.025       0        
GRID        3063       00.0541360.032893  -0.025       0        
GRID        3064       0 0.046840.036199  -0.025       0        
GRID        3065       00.0316790.041345  -0.025       0        
GRID        3066       00.0080050.045254  -0.025       0        
GRID        3067       0      0.0.045516  -0.025       0        
GRID        3068       00.0080050.045254  -0.015       0        
GRID        3069       00.0159760.044469  -0.015       0        
GRID        3070       00.0238790.043164  -0.015       0        
GRID        3071       00.0316790.041345  -0.015       0        
GRID        3072       00.039344 0.03902  -0.015       0        
GRID        3073       0 0.046840.036199  -0.015       0        
GRID        3074       00.0541360.032893  -0.015       0        
GRID        3075       0  0.06120.029117  -0.015       0        
GRID        3076       00.0680020.024888  -0.015       0        
GRID        3077       00.0745120.020222  -0.015       0        
GRID        3078       00.0807040.015141  -0.015       0        
$ ... 381 like lines cut
GRID        3460       00.023535 -0.0201  -5.E-3       0        
GRID        3461       0 0.03075 -0.0236  -5.E-3       0        
GRID        3462       00.021226 -0.0396 -0.0151       0        
GRID        3463       00.006038 -0.0311 -0.0133       0        
GRID        3464       00.015416 -0.0461 -0.0198       0        
GRID        3465       0 0.03219 -0.0311  -8.E-3       0        
GRID        3466       00.025664 -0.0339 -0.0112       0        
GRID        3467       00.025617 -0.0266-7.75E-3       0        
GRID        3468       00.039156 -0.0377-8.33E-3       0        
GRID        3469       00.034825 -0.0421 -0.0117       0        
GRID        3470       00.030494-0.04639  -0.015       0        
GRID        3471       00.026163 -0.0507 -0.0183       0        
GRID        3472       00.015917-0.01748  -5.E-3       0        
GRID        3473       00.006928 -0.0246-9.74E-3       0        
GRID        3474       00.012767 -0.0293 -0.0117       0        
GRID        3475       00.017712 -0.0341 -0.0132       0        
GRID        3476       0 0.02372 -0.0455 -0.0171       0        
GRID        3477       00.015223 -0.0393 -0.0164       0        
GRID        3478       00.009694  -0.042 -0.0188       0        
GRID        3479       00.004458 -0.0434 -0.0201       0        
GRID        3480       0 0.00526 -0.0373 -0.0168       0        
GRID        3481       0 0.01121 -0.0353 -0.0151       0        
GRID        3482       00.019669 -0.0518 -0.0211       0        
GRID        3483       00.019776 -0.0284-9.99E-3       0        
GRID        3484       00.019972 -0.0232-7.27E-3       0        
GRID        3485       00.014057-0.02304-8.18E-3       0        
GRID        3486       00.028238 -0.0405 -0.0134       0        
GRID        3487       00.032394 -0.0369 -0.0105       0        
GRID        3488       0      0. -0.0564  -5.E-3       0        
GRID        3489       0      0. -0.0461  -5.E-3       0        
GRID        3490       0      0. -0.0399 -0.0183       0        
GRID        3491       0      0.  -0.055-0.01851       0        
GRID        3492       0      0.-0.05314 -0.0112       0        
GRID        3493       0      0. -0.0466 -0.0145       0        
GRID        3494       0      0.-0.04048 -0.0116       0        
GRID        3495       0      0. -0.0645 -0.0193       0        
GRID        3496       0      0.  -0.062 -0.0124       0        
GRID        3497       00.021744 -0.0551  -5.E-3       0        
GRID        3498       00.007248 -0.0696  -5.E-3       0        
GRID        3499       0      0. -0.0769  -0.015       0        
GRID        3500       00.015495 -0.0614-0.01851       0        
GRID        3501       0 0.01679 -0.0601 -0.0112       0        
GRID        3502       00.008779 -0.0681 -0.0193       0        
GRID        3503       00.010557 -0.0663 -0.0124       0        
GRID        3504       00.021444-0.05544 -0.0145       0        
GRID        3505       00.025742 -0.0511 -0.0116       0        
GRID        3506       0      0. -0.0769  -5.E-3       0        
GRID        3507       00.014496 -0.0624  -5.E-3       0        
GRID        3508       00.028991 -0.0479  -5.E-3       0        
GRID        3509       00.036239 -0.0407  -5.E-3       0        
GRID        3510       00.037439 -0.0281  -5.E-3       0        
GRID        3511       00.008027-0.01591  -5.E-3       0        
GRID        3512       0      0. -0.0256  -5.E-3       0        
GRID        3513       0      0. -0.0359  -5.E-3       0        
GRID        3514       0      0. -0.0666  -5.E-3       0        
GRID        3515       00.010513 -0.0232  -5.E-3       0        
GRID        3516       0 0.01087 -0.0315  -5.E-3       0        
GRID        3517       00.016774-0.03763  -5.E-3       0        
GRID        3518       00.018872 -0.0455  -5.E-3       0        
GRID        3519       00.025173 -0.0285  -5.E-3       0        
GRID        3520       00.025713 -0.0377  -5.E-3       0        
GRID        3521       0 0.03314 -0.0321  -5.E-3       0        
GRID        3522       0 0.01774 -0.0254  -5.E-3       0        
GRID        3523       0 0.01941 -0.0323  -5.E-3       0        
GRID        3524       00.010079 -0.0526  -5.E-3       0        
GRID        3525       00.009437 -0.0416  -5.E-3       0        
GRID        3526       00.006361 -0.0615  -5.E-3       0        
GRID        3527       0      0. -0.0769  -0.025       0        
GRID        3528       0      0. -0.0521  -0.025       0        
GRID        3529       00.005834 -0.0711  -0.025       0        
GRID        3530       00.006047 -0.0623  -0.025       0        
GRID        3531       00.017578  -0.014 -0.0139       0        
GRID        3532       00.023245 -0.0224 -0.0229       0        
GRID        3533       00.012762 -0.0142 -0.0228       0        
GRID        3534       00.024587 -0.0113 -0.0245       0        
GRID        3535       0 0.01542 -0.0224 -0.0183       0        
GRID        3536       00.011358 -0.0205 -0.0317       0        
GRID        3537       0 0.02264 -0.0238  -0.033       0        
GRID        3538       00.031984 -0.0173 -0.0325       0        
GRID        3539       00.012726-4.69E-3  -0.026       0        
GRID        3540       00.017715 -0.0425-1.85913       0        
GRID        3541       00.020938-0.04242-1.84927       0        
GRID        3542       00.016539 -0.0487-1.78955       0        
GRID        3543       00.017129 -0.0422-1.59085       0        
GRID        3544       00.009467 -0.0379-1.60095       0        
GRID        3545       00.009857 -0.0564-0.31752       0        
GRID        3546       00.011749 -0.0486-1.60088       0        
$ ... 61 like lines cut
GRID        3608       00.021165  -9.E-3 -0.0872       0        
GRID        3609       00.021435-6.57E-3 -0.0763       0        
GRID        3610       0 0.01403 -0.0266 -0.0754       0        
GRID        3611       00.011357 -0.0122 -0.0666       0        
GRID        3612       0 0.01051 -0.0163 -0.0884       0        
GRID        3613       00.0197080.023327 -0.0152       0        
GRID        3614       00.0288940.017964  -0.015       0        
GRID        3615       00.009649 -0.0378-1.68052       0        
GRID        3616       00.009501 -0.0378-1.68925       0        
GRID        3617       00.011875 -0.0486-1.68111       0        
GRID        3618       00.011749 -0.0318-0.17512       0        
GRID        3619       00.015757 -0.0393-0.16476       0        
GRID        3620       00.010771 -0.0342-0.19506       0        
GRID        3621       0 0.01071 -0.0508 -0.0511       0        
GRID        3622       00.013519-0.04567 -0.0684       0        
GRID        3623       00.014301 -0.0432-0.05795       0        
GRID        3624       00.009501  -0.036 -0.0508       0        
GRID        3625       00.011456 -0.0341 -0.0672       0        
GRID        3626       00.022991 -0.0381 -0.0635       0        
GRID        3627       00.022209 -0.0413 -0.0508       0        
GRID        3628       00.020938-0.04242-1.84096       0        
$ ... 98 like lines cut
CTETRA         1       1    3531    3532    3533    3534                        
CTETRA         2       1    3535    3531    3532    3533                        
CTETRA         3       1      71    2627     880    2632                        
CTETRA         4       1    3534    3532    3533    3536                        
CTETRA         5       1    3534    3537    3538    3532                        
CTETRA         6       1    3536    3534    3539    3533                        
CTETRA         7       1    3540    3541    2863    2864                        
CTETRA         8       1    3540    3541    2864    2865                        
CTETRA         9       1    3540    3045    2860    3044                        
CTETRA        10       1    2464    2461    3542    2465                        
CTETRA        11       1    3543    3025    3544    3026                        
CTETRA        12       1    1968    3545    2633    2590                        
CTETRA        13       1    1134    3543    1135    3544                        
CTETRA        14       1    3546    1135    2811    3543                        
CTETRA        15       1    2810    2809    2812    1135                        
CTETRA        16       1    3546    3544    1133    1135                        
CTETRA        17       1    3547    3548    3549    3550                        
CTETRA        18       1    3547    3550    2780    2800                        
CTETRA        19       1    3534    3551    3552    3553                        
CTETRA        20       1    3547    3531    2795    2779                        
$ ... 9853 like lines cut
ENDDATA
