ID FEMAP,FEMAP
SOL SESTATICS
TIME 10000
CEND
  ECHO = NONE
  DISPLACEMENT(PLOT) = ALL
  SPCFORCE(PLOT) = ALL
  OLOAD(PLOT) = ALL
  FORCE(PLOT,CORNER) = ALL
  STRESS(PLOT,CORNER) = ALL
  SPC = 1
  LOAD = 1
BEGIN BULK
$ ***************************************************************************
$   Written by : FEMAP
$   Version    : 8.00
$   Translator : NE/Nastran
$   From Model : 
$   Date       : Sat Feb 28 16:25:58 2004
$ ***************************************************************************
$
PARAM,POST,-1
PARAM,OGEOM,NO
PARAM,AUTOSPC,YES
PARAM,GRDPNT,0
CORD2C         1       0      0.      0.      0.      0.      0.      1.+FEMAPC1
+FEMAPC1      1.      0.      1.
CORD2S         2       0      0.      0.      0.      0.      0.      1.+FEMAPC2
+FEMAPC2      1.      0.      1.
$ FEMAP Load Set 1 : L
MOMENT         1     101       0      1.      0.      0.     10.
$ FEMAP Constraint Set 1 : NASTRAN SPC 1
SPC            1       1  123456      0.
$ FEMAP Property 1 : Untitled
PBEAM          1       1  2.5E-55.21E-115.21E-11      0. 8.8E-11      0.+PR    1
+PR    1 -2.5E-3 -2.5E-3  0.0025 -2.5E-3  0.0025  0.0025 -2.5E-3  0.0025+PA    1
+PA    1    YESA      1.                                                +PC    1
+PC    1 0.85012 0.85012                                                        
$ FEMAP Material 1 : Untitled
MAT1           1 7.2E+102.77E+10     0.3   2700.      0.      0.        
GRID           1       0-0.997060.001233      0.       0        
GRID           2       0-0.977060.001233      0.       0        
GRID           3       0-0.957060.001233      0.       0        
GRID           4       0-0.937060.001233      0.       0        
GRID           5       0-0.917060.001233      0.       0        
GRID           6       0-0.897060.001233      0.       0        
GRID           7       0-0.877060.001233      0.       0        
GRID           8       0-0.857060.001233      0.       0        
GRID           9       0-0.837060.001233      0.       0        
GRID          10       0-0.817060.001233      0.       0        
GRID          11       0-0.797060.001233      0.       0        
GRID          12       0-0.777060.001233      0.       0        
GRID          13       0-0.757060.001233      0.       0        
GRID          14       0-0.737060.001233      0.       0        
GRID          15       0-0.717060.001233      0.       0        
GRID          16       0-0.697060.001233      0.       0        
GRID          17       0-0.677060.001233      0.       0        
GRID          18       0-0.657060.001233      0.       0        
GRID          19       0-0.637060.001233      0.       0        
GRID          20       0-0.617060.001233      0.       0        
$ ... 81 like lines cut
CBEAM          1       1       1       2      0.      1.      0.
CBEAM          2       1       2       3      0.      1.      0.
CBEAM          3       1       3       4      0.      1.      0.
CBEAM          4       1       4       5      0.      1.      0.
CBEAM          5       1       5       6      0.      1.      0.
CBEAM          6       1       6       7      0.      1.      0.
CBEAM          7       1       7       8      0.      1.      0.
CBEAM          8       1       8       9      0.      1.      0.
CBEAM          9       1       9      10      0.      1.      0.
CBEAM         10       1      10      11      0.      1.      0.
CBEAM         11       1      11      12      0.      1.      0.
CBEAM         12       1      12      13      0.      1.      0.
CBEAM         13       1      13      14      0.      1.      0.
CBEAM         14       1      14      15      0.      1.      0.
CBEAM         15       1      15      16      0.      1.      0.
CBEAM         16       1      16      17      0.      1.      0.
CBEAM         17       1      17      18      0.      1.      0.
CBEAM         18       1      18      19      0.      1.      0.
CBEAM         19       1      19      20      0.      1.      0.
CBEAM         20       1      20      21      0.      1.      0.
$ ... 80 like lines cut
ENDDATA
