ID FEMAP,FEMAP
SOL SESTATICS
TIME 10000
CEND
  ECHO = NONE
  DISPLACEMENT(PLOT) = ALL
  SPCFORCE(PLOT) = ALL
  OLOAD(PLOT) = ALL
  FORCE(PLOT,CORNER) = ALL
  STRESS(PLOT,CORNER) = ALL
  SPC = 1
  LOAD = 1
BEGIN BULK
$ ***************************************************************************
$   Written by : FEMAP
$   Version    : 8.00
$   Translator : NE/Nastran
$   From Model : 
$   Date       : Fri Jun 11 18:42:26 2004
$ ***************************************************************************
$
PARAM,POST,-1
PARAM,OGEOM,NO
PARAM,AUTOSPC,YES
PARAM,GRDPNT,0
CORD2C         1       0      0.      0.      0.      0.      0.      1.+FEMAPC1
+FEMAPC1      1.      0.      1.
CORD2S         2       0      0.      0.      0.      0.      0.      1.+FEMAPC2
+FEMAPC2      1.      0.      1.
$ FEMAP Load Set 1 : L
FORCE          1     528       0      1.      0.    -10.      0.
FORCE          1     530       0      1.      0.    -10.      0.
FORCE          1     531       0      1.      0.    -10.      0.
FORCE          1     532       0      1.      0.    -10.      0.
FORCE          1     533       0      1.      0.    -10.      0.
FORCE          1     534       0      1.      0.    -10.      0.
FORCE          1     535       0      1.      0.    -10.      0.
FORCE          1     536       0      1.      0.    -10.      0.
FORCE          1     537       0      1.      0.    -10.      0.
FORCE          1     538       0      1.      0.    -10.      0.
FORCE          1     539       0      1.      0.    -10.      0.
FORCE          1     540       0      1.      0.    -10.      0.
FORCE          1     541       0      1.      0.    -10.      0.
FORCE          1     542       0      1.      0.    -10.      0.
FORCE          1     543       0      1.      0.    -10.      0.
FORCE          1     544       0      1.      0.    -10.      0.
FORCE          1     545       0      1.      0.    -10.      0.
FORCE          1     546       0      1.      0.    -10.      0.
FORCE          1     547       0      1.      0.    -10.      0.
FORCE          1     548       0      1.      0.    -10.      0.
$ ... 29 like lines cut
$ FEMAP Constraint Set 1 : NASTRAN SPC 1
SPC            1      42  123456      0.
SPC            1     189  123456      0.
SPC            1     452  123456      0.
SPC            1     470  123456      0.
$ FEMAP Property 1 : Untitled
PBEAM          1       1  0.0019  1.8E-6  1.8E-6-1.07E-66.239E-8      0.+PR    1
+PR    1 -5.3E-3 -5.3E-30.094699 -5.3E-30.0046990.094699 -5.3E-30.094699+PA    1
+PA    1    YESA      1.                                                +PC    1
+PC    1  0.4313  0.4313                                                +PD    1
+PD    1                                0.0233830.0233830.0233830.023383        
$ FEMAP Property 2 : Untitled
PBEAM          2       1 3.14E-47.854E-97.854E-9      0.1.569E-8      0.+PR    2
+PR    2      0.   -0.01    0.01      0.      0.    0.01   -0.01      0.+PA    2
+PA    2    YESA      1.                                                +PC    2
+PC    2 0.88652 0.88653                                                        
$ FEMAP Material 1 : Untitled
MAT1           1 2.1E+11 1.8E+11     0.3   2700.      0.      0.        
$ FEMAP Material 2 : Untitled
MAT1           2 7.2E+10  6.E+10     0.3   2700.      0.      0.        
GRID           2       0   -0.49    0.25      0.       0        
GRID           3       0   -0.48     0.5      0.       0        
GRID           4       0   -0.47    0.75      0.       0        
GRID           5       0   -0.46      1.      0.       0        
GRID           7       0   -0.44     1.5      0.       0        
GRID           8       0   -0.43    1.75      0.       0        
GRID           9       0   -0.42      2.      0.       0        
GRID          10       0   -0.41    2.25      0.       0        
GRID          11       0    -0.4     2.5      0.       0        
GRID          12       0   -0.39    2.75      0.       0        
GRID          13       0   -0.38      3.      0.       0        
GRID          14       0   -0.37    3.25      0.       0        
GRID          15       0   -0.36     3.5      0.       0        
GRID          17       0   -0.34      4.      0.       0        
GRID          18       0   -0.33    4.25      0.       0        
GRID          19       0   -0.32     4.5      0.       0        
GRID          20       0   -0.31    4.75      0.       0        
GRID          22       0   -0.29    5.25      0.       0        
GRID          23       0   -0.28     5.5      0.       0        
GRID          24       0   -0.27    5.75      0.       0        
$ ... 411 like lines cut
CBEAM          1       1     189       2-0.23369 0.97231      0.
CBEAM          2       1       2       3-0.23369 0.97231      0.
CBEAM          3       1       3       4-0.23369 0.97231      0.
CBEAM          4       1       4       5-0.23369 0.97231      0.
CBEAM          5       1       5      90-0.23369 0.97231      0.
CBEAM          6       1      90       7-0.23369 0.97231      0.
CBEAM          7       1       7       8-0.23369 0.97231      0.
CBEAM          8       1       8       9-0.23369 0.97231      0.
CBEAM          9       1       9      10-0.23369 0.97231      0.
CBEAM         10       1      10      11-0.23369 0.97231      0.
CBEAM         11       1      11      12-0.23369 0.97231      0.
CBEAM         12       1      12      13-0.23369 0.97231      0.
CBEAM         13       1      13      14-0.23369 0.97231      0.
CBEAM         14       1      14      15-0.23369 0.97231      0.
CBEAM         15       1      15     100-0.23369 0.97231      0.
CBEAM         16       1     100      17-0.23369 0.97231      0.
CBEAM         17       1      17      18-0.23369 0.97231      0.
CBEAM         18       1      18      19-0.23369 0.97231      0.
CBEAM         19       1      19      20-0.23369 0.97231      0.
CBEAM         20       1      20     149-0.23369 0.97231      0.
$ ... 472 like lines cut
ENDDATA
