ID FEMAP,FEMAP
SOL SESTATICS
TIME 10000
CEND
  ECHO = NONE
  DISPLACEMENT(PLOT) = ALL
  SPCFORCE(PLOT) = ALL
  OLOAD(PLOT) = ALL
  FORCE(PLOT,CORNER) = ALL
  STRESS(PLOT,CORNER) = ALL
  SPC = 1
  LOAD = 1
BEGIN BULK
$ ***************************************************************************
$   Written by : FEMAP
$   Version    : 8.00
$   Translator : NE/Nastran
$   From Model : 
$   Date       : Thu Mar 04 19:50:28 2004
$ ***************************************************************************
$
PARAM,POST,-1
PARAM,OGEOM,NO
PARAM,AUTOSPC,YES
PARAM,GRDPNT,0
CORD2C         1       0      0.      0.      0.      0.      0.      1.+FEMAPC1
+FEMAPC1      1.      0.      1.
CORD2S         2       0      0.      0.      0.      0.      0.      1.+FEMAPC2
+FEMAPC2      1.      0.      1.
$ FEMAP Load Set 1 : L
FORCE          1      22       0      1.      0.  -1.E-3      0.
FORCE          1      23       0      1.      0.  -1.E-3      0.
FORCE          1      24       0      1.      0.  -1.E-3      0.
FORCE          1      25       0      1.      0.  -1.E-3      0.
FORCE          1      26       0      1.      0.  -1.E-3      0.
FORCE          1      27       0      1.      0.  -1.E-3      0.
FORCE          1      28       0      1.      0.  -1.E-3      0.
FORCE          1      29       0      1.      0.  -1.E-3      0.
FORCE          1      30       0      1.      0.  -1.E-3      0.
FORCE          1      31       0      1.      0.  -1.E-3      0.
FORCE          1      32       0      1.      0.  -1.E-3      0.
FORCE          1      33       0      1.      0.  -1.E-3      0.
FORCE          1      34       0      1.      0.  -1.E-3      0.
FORCE          1      35       0      1.      0.  -1.E-3      0.
FORCE          1      36       0      1.      0.  -1.E-3      0.
FORCE          1      37       0      1.      0.  -1.E-3      0.
FORCE          1      38       0      1.      0.  -1.E-3      0.
FORCE          1      39       0      1.      0.  -1.E-3      0.
FORCE          1      40       0      1.      0.  -1.E-3      0.
FORCE          1      41       0      1.      0.  -1.E-3      0.
$ ... 180 like lines cut
$ FEMAP Constraint Set 1 : NASTRAN SPC 1
SPC            1      21  123456      0.
SPC            1     147  123456      0.
SPC            1     279  123456      0.
$ FEMAP Property 1 : Untitled
PBEAM          1       17.851E-54.91E-104.91E-10      0.9.81E-10      0.+PR    1
+PR    1      0.  -5.E-3   0.005      0.      0.   0.005  -5.E-3      0.+PA    1
+PA    1    YESA      1.                                                +PC    1
+PC    1 0.88652 0.88653                                                        
$ FEMAP Property 2 : Untitled
PBEAM          2       1  0.02560.0023510.001145      0.0.002363      0.+PR    2
+PR    2    -0.4   -0.25     0.4   -0.25     0.4    0.25    -0.4    0.25+PA    2
+PA    2    YESA      1.                                                +PC    2
+PC    2 0.57626 0.30129                                                        
$ FEMAP Material 1 : Untitled
MAT1           1 7.2E+102.77E+10     0.3      0.      0.      0.        
GRID           2       0    -10.    -1.2      0.       0        
GRID           3       0    -10.    -1.4      0.       0        
GRID           4       0    -10.    -1.6      0.       0        
GRID           5       0    -10.    -1.8      0.       0        
GRID           6       0    -10.     -2.      0.       0        
GRID           7       0    -10.    -2.2      0.       0        
GRID           8       0    -10.    -2.4      0.       0        
GRID           9       0    -10.    -2.6      0.       0        
GRID          10       0    -10.    -2.8      0.       0        
GRID          11       0    -10.     -3.      0.       0        
GRID          12       0    -10.    -3.2      0.       0        
GRID          13       0    -10.    -3.4      0.       0        
GRID          14       0    -10.    -3.6      0.       0        
GRID          15       0    -10.    -3.8      0.       0        
GRID          16       0    -10.     -4.      0.       0        
GRID          17       0    -10.    -4.2      0.       0        
GRID          18       0    -10.    -4.4      0.       0        
GRID          19       0    -10.    -4.6      0.       0        
GRID          20       0    -10.    -4.8      0.       0        
GRID          21       0    -10.     -5.      0.       0        
$ ... 255 like lines cut
CBEAM          1       2      22       2      1.      0.      0.
CBEAM          2       1       2       3      1.      0.      0.
CBEAM          3       1       3       4      1.      0.      0.
CBEAM          4       1       4       5      1.      0.      0.
CBEAM          5       1       5       6      1.      0.      0.
CBEAM          6       1       6       7      1.      0.      0.
CBEAM          7       1       7       8      1.      0.      0.
CBEAM          8       1       8       9      1.      0.      0.
CBEAM          9       1       9      10      1.      0.      0.
CBEAM         10       1      10      11      1.      0.      0.
CBEAM         11       1      11      12      1.      0.      0.
CBEAM         12       1      12      13      1.      0.      0.
CBEAM         13       1      13      14      1.      0.      0.
CBEAM         14       1      14      15      1.      0.      0.
CBEAM         15       1      15      16      1.      0.      0.
CBEAM         16       1      16      17      1.      0.      0.
CBEAM         17       1      17      18      1.      0.      0.
CBEAM         18       1      18      19      1.      0.      0.
CBEAM         19       1      19      20      1.      0.      0.
CBEAM         20       1      20      21      1.      0.      0.
$ ... 254 like lines cut
ENDDATA
