ID C:\Users\Dima\Lame3d2\Mpl,FEMAP
SOL SESTATICS
TIME 10000
CEND
  ECHO = NONE
  DISPLACEMENT(PLOT) = ALL
  SPCFORCE(PLOT) = ALL
  OLOAD(PLOT) = ALL
  FORCE(PLOT,CORNER) = ALL
  STRESS(PLOT,CORNER) = ALL
BEGIN BULK
$ ***************************************************************************
$   Written by : FEMAP
$   Version    : 7.00
$   Translator : MSC/NASTRAN
$   From Model : C:\Users\Dima\Lame3d2\Mpls_all\Exe\Beam3D\Solid\Opora.MOD
$   Date       : Mon Aug 07 15:12:44 2006
$ ***************************************************************************
$
PARAM,POST,-1
PARAM,OGEOM,NO
PARAM,AUTOSPC,YES
PARAM,GRDPNT,0
CORD2C         1       0      0.      0.      0.      0.      0.      1.+FEMAPC1
+FEMAPC1      1.      0.      1.
CORD2S         2       0      0.      0.      0.      0.      0.      1.+FEMAPC2
+FEMAPC2      1.      0.      1.
$ FEMAP Property 1 : Untitled
PBEAM          1       1      0.      0.      0.      0.      0.      0.+PR    1
+PR    1      0.      0.      0.      0.      0.      0.      0.      0.+PA    1
+PA    1    YESA      1.                                                +PC    1
+PC    1                                                                        
$ FEMAP Material 1 : Untitled
MAT1           1                              0.      0.      0.        
GRID           1       0      2.      0.      2.       0        
GRID           3       0      2.      0.     -2.       0        
GRID           5       0     -2.      0.     -2.       0        
GRID           7       0     -2.      0.      2.       0        
GRID          12       0     -1.     0.5     -2.       0        
GRID          15       0      2.     0.5     -1.       0        
GRID          16       0      2.     0.5      0.       0        
GRID          17       0      2.     0.5      1.       0        
GRID          22       0     -1.     0.5      2.       0        
GRID          25       0     -2.     0.5      1.       0        
GRID          26       0     -2.     0.5      0.       0        
GRID          27       0     -2.     0.5     -1.       0        
GRID          30       0      1.      6.      0.       0        
GRID          33       0      0.      6.     -1.       0        
GRID          36       0     -1.      6.      0.       0        
GRID          39       0      0.      6.      1.       0        
GRID          42       0      1.     10.      0.       0        
GRID          48       0     -1.     10.      0.       0        
GRID          51       0      0.     10.      1.       0        
GRID          54       0      1.     14.      0.       0        
$ ... 149 like lines cut
CBEAM          1       1       1     337      1.      0.      0.
CBEAM          2       1       3     164      1.      0.      0.
CBEAM          3       1       5     318      1.      0.      0.
CBEAM          4       1       7     313      1.      0.      0.
CBEAM          5       1     164      15      1.      0.      0.
CBEAM          6       1      15      16      1.      0.      0.
CBEAM          7       1      16      17      1.      0.      0.
CBEAM          8       1      17     337      1.      0.      0.
CBEAM          9       1     313      25      1.      0.      0.
CBEAM         10       1      25      26      1.      0.      0.
CBEAM         11       1      26      27      1.      0.      0.
CBEAM         12       1      27     318      1.      0.      0.
CBEAM         13       1     349      30      1.      0.      0.
CBEAM         14       1      30     350      1.      0.      0.
CBEAM         15       1     324      36      1.      0.      0.
CBEAM         16       1      36     196      1.      0.      0.
CBEAM         17       1     327      42      1.      0.      0.
CBEAM         18       1      42     224      1.      0.      0.
CBEAM         19       1     330      48      1.      0.      0.
CBEAM         20       1      48     353      1.      0.      0.
$ ... 200 like lines cut
ENDDATA
