ID FEMAP,FEMAP
SOL SESTATICS
TIME 10000
CEND
  ECHO = NONE
  DISPLACEMENT(PLOT) = ALL
  SPCFORCE(PLOT) = ALL
  OLOAD(PLOT) = ALL
  FORCE(PLOT,CORNER) = ALL
  STRESS(PLOT,CORNER) = ALL
BEGIN BULK
$ ***************************************************************************
$   Written by : FEMAP
$   Version    : 7.00
$   Translator : MSC/NASTRAN
$   From Model : 
$   Date       : Tue Oct 10 16:17:11 2006
$ ***************************************************************************
$
PARAM,POST,-1
PARAM,OGEOM,NO
PARAM,AUTOSPC,YES
PARAM,GRDPNT,0
CORD2C         1       0      0.      0.      0.      0.      0.      1.+FEMAPC1
+FEMAPC1      1.      0.      1.
CORD2S         2       0      0.      0.      0.      0.      0.      1.+FEMAPC2
+FEMAPC2      1.      0.      1.
$ FEMAP Property 1 : Untitled
PBEAM          1       1      0.      0.      0.      0.      0.      0.+PR    1
+PR    1      0.      0.      0.      0.      0.      0.      0.      0.+PA    1
+PA    1    YESA      1.                                                +PC    1
+PC    1                                                                        
$ FEMAP Material 1 : Untitled
MAT1           1                              0.      0.      0.        
GRID        1400       0      2.      0.      2.       0        
GRID        1402       0      2.      0.     -2.       0        
GRID        1404       0     -2.      0.     -2.       0        
GRID        1406       0     -2.      0.      2.       0        
GRID        1409       0      1.     0.5     -2.       0        
GRID        1410       0      0.     0.5     -2.       0        
GRID        1411       0     -1.     0.5     -2.       0        
GRID        1414       0      2.     0.5     -1.       0        
GRID        1415       0      2.     0.5      0.       0        
GRID        1416       0      2.     0.5      1.       0        
GRID        1419       0      1.     0.5      2.       0        
GRID        1420       0      0.     0.5      2.       0        
GRID        1421       0     -1.     0.5      2.       0        
GRID        1423       0     -2.     0.5      2.       0        
GRID        1424       0     -2.     0.5      1.       0        
GRID        1425       0     -2.     0.5      0.       0        
GRID        1426       0     -2.     0.5     -1.       0        
GRID        1427       0     -2.     0.5     -2.       0        
GRID        1429       0      1.      6.      0.       0        
GRID        1431       0      1.      6.     -1.       0        
$ ... 175 like lines cut
CBEAM        915       1    1400    1567 0.70711      0. 0.70711
CBEAM        916       1    1402    1561 0.70711      0. 0.70711
CBEAM        917       1    1404    1427 0.70711      0. 0.70711
CBEAM        918       1    1406    1423 0.70711      0. 0.70711
CBEAM        919       1    1561    1409 0.70711      0. 0.70711
CBEAM        920       1    1409    1410 0.70711      0. 0.70711
CBEAM        921       1    1410    1411 0.70711      0. 0.70711
CBEAM        922       1    1411    1427 0.70711      0. 0.70711
CBEAM        923       1    1561    1414 0.70711      0. 0.70711
CBEAM        924       1    1414    1415 0.70711      0. 0.70711
CBEAM        925       1    1415    1416 0.70711      0. 0.70711
CBEAM        926       1    1416    1567 0.70711      0. 0.70711
CBEAM        927       1    1567    1419 0.70711      0. 0.70711
CBEAM        928       1    1419    1420 0.70711      0. 0.70711
CBEAM        929       1    1420    1421 0.70711      0. 0.70711
CBEAM        930       1    1421    1423 0.70711      0. 0.70711
CBEAM        931       1    1423    1424 0.70711      0. 0.70711
CBEAM        932       1    1424    1425 0.70711      0. 0.70711
CBEAM        933       1    1425    1426 0.70711      0. 0.70711
CBEAM        934       1    1426    1427 0.70711      0. 0.70711
$ ... 230 like lines cut
ENDDATA
