ID C:\Users\Dima\Lame3d2\Mpl,FEMAP
SOL SESTATICS
TIME 10000
CEND
  ECHO = NONE
  DISPLACEMENT(PLOT) = ALL
  SPCFORCE(PLOT) = ALL
  OLOAD(PLOT) = ALL
  FORCE(PLOT,CORNER) = ALL
  STRESS(PLOT,CORNER) = ALL
  LOAD = 999
BEGIN BULK
$ ***************************************************************************
$   Written by : FEMAP
$   Version    : 7.00
$   Translator : MSC/NASTRAN
$   From Model : C:\Users\Dima\Lame3d2\Mpls_all\Exe\Beam3D\Solid\Opora_U110-4.MOD
$   Date       : Fri Mar 16 14:25:03 2007
$ ***************************************************************************
$
PARAM,POST,-1
PARAM,OGEOM,NO
PARAM,AUTOSPC,YES
PARAM,GRDPNT,0
CORD2C         1       0      0.      0.      0.      0.      0.      1.+FEMAPC1
+FEMAPC1      1.      0.      1.
CORD2S         2       0      0.      0.      0.      0.      0.      1.+FEMAPC2
+FEMAPC2      1.      0.      1.
$ FEMAP Load Set 111 : Basis Rigid
SPCD         111    4922       1    111.
SPCD         111    4933       1    111.
SPCD         111    4926       1    111.
SPCD         111    4934       1    111.
$ FEMAP Load Set 222 : Grozo Marker2
SPCD         222    6032       1    222.
$ FEMAP Load Set 333 : Wiire1 Marker3
SPCD         333    6041       1    333.
$ FEMAP Load Set 444 : Wiire1 Marker4
SPCD         444    6046       1    444.
$ FEMAP Load Set 555 : Wiire2 Marker5
SPCD         555    6064       1    555.
$ FEMAP Load Set 666 : Wiire2 Marker6
SPCD         666    6056       1    666.
$ FEMAP Load Set 777 : Wiire3 Marker7
SPCD         777    6082       1    777.
$ FEMAP Load Set 888 : Wiire3 Marker8
SPCD         888    6072       1    888.
$ FEMAP Load Set 999 : Load Force3D .003 0. 0.
SPCD         999    6032       1    999.
$ FEMAP Property 1 : L5(5)
PBEAM          1       1      0.      0.      0.      0.      0.      0.+PR    1
+PR    1      0.      0.      0.      0.      0.      0.      0.      0.+PA    1
+PA    1    YESA      1.                                                +PC    1
+PC    1                                                                        
$ FEMAP Material 1 : Untitled
MAT1           1                              0.      0.      0.        
GRID        4922       0      2.      0.      2.       0        
GRID        4926       0     -2.      0.     -2.       0        
GRID        4933       0      2.      0.     -2.       0        
GRID        4934       0     -2.      0.      2.       0        
GRID        4944       0      0.    1.75 -1.7532       0        
GRID        4954       0  1.7532    1.75 -1.7532       0        
GRID        4963       0   0.625    9.75  -0.625       0        
GRID        4968       0  -0.625    9.75   0.625       0        
GRID        4980       0      0.    1.75  1.7532       0        
GRID        4984       0  1.7532    1.75      0.       0        
GRID        4991       0 -1.5769      3. -1.5769       0        
GRID        4992       0 -1.7532    1.75      0.       0        
GRID        4994       0      0.   4.098  1.4497       0        
GRID        4998       0  1.5769      3.  1.5769       0        
GRID        5001       0  1.5769      3. -1.5769       0        
GRID        5003       0      0.   4.098 -1.4497       0        
GRID        5014       0 -1.4497   4.098      0.       0        
GRID        5017       0  1.4497   4.098      0.       0        
GRID        5020       0  1.2949      5. -1.2949       0        
GRID        5033       0 -1.5769      3.  1.5769       0        
$ ... 208 like lines cut
CBEAM       2830       1    4933    4926 0.57735 0.57735 0.57735
CBEAM       2831       1    4933    4922 0.57735 0.57735 0.57735
CBEAM       2832       1    4922    4934 0.57735 0.57735 0.57735
CBEAM       2833       1    4934    4926 0.57735 0.57735 0.57735
CBEAM       2834       1    4934    5157 0.57735 0.57735 0.57735
CBEAM       2835       1    4922    5159 0.57735 0.57735 0.57735
CBEAM       2836       1    4933    4954 0.57735 0.57735 0.57735
CBEAM       2837       1    4926    5161 0.57735 0.57735 0.57735
CBEAM       2838       1    4922    4984 0.57735 0.57735 0.57735
CBEAM       2839       1    4984    4933 0.57735 0.57735 0.57735
CBEAM       2840       1    4934    4980 0.57735 0.57735 0.57735
CBEAM       2841       1    4922    4980 0.57735 0.57735 0.57735
CBEAM       2842       1    4934    4992 0.57735 0.57735 0.57735
CBEAM       2843       1    4992    4926 0.57735 0.57735 0.57735
CBEAM       2844       1    4926    4944 0.57735 0.57735 0.57735
CBEAM       2845       1    4944    4933 0.57735 0.57735 0.57735
CBEAM       2846       1    5157    4992 0.57735 0.57735 0.57735
CBEAM       2847       1    4992    5161 0.57735 0.57735 0.57735
CBEAM       2848       1    5161    4944 0.57735 0.57735 0.57735
CBEAM       2849       1    4944    4954 0.57735 0.57735 0.57735
$ ... 563 like lines cut
ENDDATA
