ID C:\Program_Files\!Geometr,FEMAP
SOL SESTATICS
TIME 10000
CEND
  ECHO = NONE
  DISPLACEMENT(PLOT) = ALL
  SPCFORCE(PLOT) = ALL
  OLOAD(PLOT) = ALL
  FORCE(PLOT,CORNER) = ALL
  STRESS(PLOT,CORNER) = ALL
  LOAD = 4
BEGIN BULK
$ ***************************************************************************
$   Written by : FEMAP
$   Version    : 7.00
$   Translator : MSC/NASTRAN
$   From Model : C:\Program_Files\!Geometry!\acoustic\air\simplified\Solid\Model.MOD
$   Date       : Wed Feb 06 09:51:04 2008
$ ***************************************************************************
$
PARAM,POST,-1
PARAM,OGEOM,NO
PARAM,AUTOSPC,YES
PARAM,GRDPNT,0
CORD2C         1       0      0.      0.      0.      0.      0.      1.+FEMAPC1
+FEMAPC1      1.      0.      1.
CORD2S         2       0      0.      0.      0.      0.      0.      1.+FEMAPC2
+FEMAPC2      1.      0.      1.
$ FEMAP Load Set 1 : Sou1 Vn 0.0 0.0
PLOAD4         1  159804    111.                           36689   36688
PLOAD4         1  159822    111.                           36120   36109
PLOAD4         1  159918    111.                           36121   36109
PLOAD4         1  160079    111.                           36689   36688
PLOAD4         1  161053    111.                           36166   36168
PLOAD4         1  161091    111.                           36121   36109
$ FEMAP Load Set 2 : Sou2 Vn 0.0 0.0
PLOAD4         2  160019    222.                           36126   36744
PLOAD4         2  160161    222.                           36116   36887
PLOAD4         2  160695    222.                           36117   36735
PLOAD4         2  160997    222.                           36139   36237
PLOAD4         2  161069    222.                           36116   36237
PLOAD4         2  161134    222.                           36116   36887
$ FEMAP Load Set 3 : Sou3 Vn 0.0 0.0
PLOAD4         3  160018    333.                           36149   36740
PLOAD4         3  160020    333.                           36126   36739
PLOAD4         3  160245    333.                           36137   36739
PLOAD4         3  160345    333.                           36142   36816
PLOAD4         3  160416    333.                           36135   36740
PLOAD4         3  160530    333.                           36141   36197
PLOAD4         3  160685    333.                           36149   36153
PLOAD4         3  160692    333.                           36141   36816
PLOAD4         3  161052    333.                           36140   36219
PLOAD4         3  161058    333.                           36142   36154
PLOAD4         3  161060    333.                           36151   36153
PLOAD4         3  161062    333.                           36141   36197
$ FEMAP Load Set 4 : Sou4 Vn -.001 0.0
PLOAD4         4  159951    444.                           36693   36740
PLOAD4         4  160017    444.                           36147   36743
PLOAD4         4  160337    444.                           35978   36161
PLOAD4         4  160413    444.                           36149   36141
PLOAD4         4  160415    444.                           36147   36740
PLOAD4         4  160685    444.                           36153   36141
PLOAD4         4  160702    444.                           36145   36002
PLOAD4         4  160705    444.                           36147   36743
PLOAD4         4  161051    444.                           36153   36141
PLOAD4         4  161060    444.                           36150   36141
PLOAD4         4  161063    444.                           36218   36161
PLOAD4         4  161087    444.                           36145   36002
$ FEMAP Load Set 5 : Sou5 Vn 0.0 0.0
PLOAD4         5  159861    555.                           36713   36035
PLOAD4         5  160370    555.                           36012   36032
PLOAD4         5  160518    555.                           36181   36226
PLOAD4         5  160519    555.                           36181   36226
PLOAD4         5  160627    555.                           36024   36035
PLOAD4         5  160923    555.                           36392   36032
$ FEMAP Load Set 6 : Top Absorb 0.5 0.0
PLOAD4         6  159450    666.                           36081   36831
PLOAD4         6  159546    666.                           36080   36831
PLOAD4         6  159782    666.                           36075   36889
PLOAD4         6  159952    666.                           36679   36776
PLOAD4         6  159975    666.                           36103   36749
PLOAD4         6  160023    666.                           36082   36775
PLOAD4         6  160041    666.                           36092   36879
PLOAD4         6  160049    666.                           36088   36724
PLOAD4         6  160052    666.                           36094   36851
PLOAD4         6  160056    666.                           36680   36732
PLOAD4         6  160073    666.                           36080   36776
PLOAD4         6  160132    666.                           36073   36825
PLOAD4         6  160187    666.                           36092   36879
PLOAD4         6  160188    666.                           36674   36806
PLOAD4         6  160189    666.                           36051   36777
PLOAD4         6  160194    666.                           36682   36754
PLOAD4         6  160196    666.                           36079   36821
PLOAD4         6  160199    666.                           36076   36858
PLOAD4         6  160201    666.                           36072   36823
PLOAD4         6  160202    666.                           36072   36751
$ ... 58 like lines cut
$ FEMAP Load Set 7 : Bottom Absorb 0.1 0.0
PLOAD4         7  159414    777.                           36145   36154
PLOAD4         7  159799    777.                           36007   36426
PLOAD4         7  159801    777.                           36005   36892
PLOAD4         7  159836    777.                           36513   36496
PLOAD4         7  159837    777.                           36494   36511
PLOAD4         7  159838    777.                           36430   36422
PLOAD4         7  159928    777.                           35980   36161
PLOAD4         7  159950    777.                           36347   36343
PLOAD4         7  159954    777.                           35984   36529
PLOAD4         7  159966    777.                           35971   36786
PLOAD4         7  159984    777.                           36007   36422
PLOAD4         7  159986    777.                           35984   36443
PLOAD4         7  159987    777.                           36006   36443
PLOAD4         7  160033    777.                           36003   36443
PLOAD4         7  160034    777.                           35984   36529
PLOAD4         7  160042    777.                           36432   36443
PLOAD4         7  160098    777.                           36593   36608
PLOAD4         7  160112    777.                           36486   36491
PLOAD4         7  160254    777.                           35974   36762
PLOAD4         7  160259    777.                           35975   36892
$ ... 32 like lines cut
$ FEMAP Load Set 8 : Seat_left Absorb 1.0 0.0
PLOAD4         8  159934    888.                           36662   36810
PLOAD4         8  159998    888.                           36415   36867
PLOAD4         8  160136    888.                           36414   36845
PLOAD4         8  160412    888.                           36417   36836
PLOAD4         8  160414    888.                           36668   36836
PLOAD4         8  160708    888.                           36467   36465
PLOAD4         8  160841    888.                           36414   36469
PLOAD4         8  160903    888.                           36467   36469
PLOAD4         8  159973    888.                           36423   36817
PLOAD4         8  160083    888.                           36424   36836
PLOAD4         8  160084    888.                           36668   36836
PLOAD4         8  160139    888.                           36579   36867
PLOAD4         8  160342    888.                           36424   36741
PLOAD4         8  160714    888.                           36656   36836
PLOAD4         8  160893    888.                           36426   36816
PLOAD4         8  161083    888.                           36423   36816
PLOAD4         8  159900    888.                           36627   36892
PLOAD4         8  159903    888.                           36627   36892
PLOAD4         8  159984    888.                           36430   36007
PLOAD4         8  160375    888.                           36422   36007
$ ... 252 like lines cut
$ FEMAP Load Set 10 : Seat_back Absorb 1.0 0.0
PLOAD4        10  159950   1111.                           36343   36009
PLOAD4        10  160142   1111.                           36155   35985
PLOAD4        10  160371   1111.                           36342   36156
PLOAD4        10  160372   1111.                           36349   36009
PLOAD4        10  160629   1111.                           36702   36789
PLOAD4        10  160639   1111.                           36703   36789
PLOAD4        10  160934   1111.                           35967   36009
PLOAD4        10  161066   1111.                           36343   36790
PLOAD4        10  159859   1111.                           36704   36787
PLOAD4        10  159937   1111.                           36365   36790
PLOAD4        10  160219   1111.                           36365   36788
PLOAD4        10  160322   1111.                           36366   36193
PLOAD4        10  160389   1111.                           36355   36784
PLOAD4        10  160475   1111.                           36355   36788
PLOAD4        10  160487   1111.                           36343   36814
PLOAD4        10  160880   1111.                           36366   36193
PLOAD4        10  160926   1111.                           36366   36209
PLOAD4        10  160928   1111.                           36342   36814
PLOAD4        10  161007   1111.                           36190   36209
PLOAD4        10  161015   1111.                           36190   36193
$ ... 42 like lines cut
$ FEMAP Load Set 11 : Glass_front Absorb 0.3 0.
PLOAD4        11  159822   1222.                           36120   36117
PLOAD4        11  160021   1222.                           36688   36117
PLOAD4        11  160076   1222.                           36103   36749
PLOAD4        11  160079   1222.                           36689   36117
PLOAD4        11  160176   1222.                           36112   36887
PLOAD4        11  160178   1222.                           36109   36117
PLOAD4        11  160182   1222.                           36120   36117
PLOAD4        11  160237   1222.                           36102   36749
PLOAD4        11  160247   1222.                           36109   36117
PLOAD4        11  160347   1222.                           36114   36750
PLOAD4        11  160348   1222.                           36114   36823
PLOAD4        11  160362   1222.                           36040   36823
PLOAD4        11  160523   1222.                           36240   36168
PLOAD4        11  160562   1222.                           36040   36310
PLOAD4        11  160688   1222.                           36101   36750
PLOAD4        11  160715   1222.                           36688   36736
PLOAD4        11  160991   1222.                           36111   36311
PLOAD4        11  160994   1222.                           36095   36168
PLOAD4        11  161073   1222.                           36110   36117
PLOAD4        11  161079   1222.                           36106   36308
$ ... 4 like lines cut
$ FEMAP Load Set 12 : Glass_back Absorb 0.3 0.0
PLOAD4        12  159787   1333.                           36034   36851
PLOAD4        12  159788   1333.                           36019   36851
PLOAD4        12  159795   1333.                           36029   36872
PLOAD4        12  159953   1333.                           36033   36807
PLOAD4        12  160028   1333.                           36038   36324
PLOAD4        12  160140   1333.                           36715   36713
PLOAD4        12  160183   1333.                           36034   36798
PLOAD4        12  160297   1333.                           36036   36850
PLOAD4        12  160300   1333.                           36036   36850
PLOAD4        12  160367   1333.                           36033   36809
PLOAD4        12  160516   1333.                           36029   36872
PLOAD4        12  160519   1333.                           36011   36392
PLOAD4        12  160520   1333.                           36032   36392
PLOAD4        12  160570   1333.                           36034   36850
PLOAD4        12  160581   1333.                           36020   36798
PLOAD4        12  160587   1333.                           36032   36404
PLOAD4        12  160627   1333.                           36035   36713
PLOAD4        12  160913   1333.                           36029   36872
PLOAD4        12  160919   1333.                           36032   36015
PLOAD4        12  160923   1333.                           36011   36392
$ ... 6 like lines cut
$ FEMAP Load Set 13 : Glass_left Absorb 0.3 0.0
PLOAD4        13  159430   1444.                           36317   36866
PLOAD4        13  159498   1444.                           36322   36841
PLOAD4        13  159507   1444.                           36296   36835
PLOAD4        13  159537   1444.                           36228   36873
PLOAD4        13  159548   1444.                           36340   36873
PLOAD4        13  159550   1444.                           36320   36840
PLOAD4        13  159640   1444.                           36331   36879
PLOAD4        13  159668   1444.                           36336   36863
PLOAD4        13  159705   1444.                           36318   36838
PLOAD4        13  159707   1444.                           36300   36079
PLOAD4        13  159721   1444.                           36310   36825
PLOAD4        13  159722   1444.                           36316   36885
PLOAD4        13  159733   1444.                           36328   36860
PLOAD4        13  159736   1444.                           36326   36888
PLOAD4        13  159756   1444.                           36304   36825
PLOAD4        13  159772   1444.                           36301   36857
PLOAD4        13  159777   1444.                           36319   36857
PLOAD4        13  159781   1444.                           36315   36889
PLOAD4        13  159790   1444.                           36335   36862
PLOAD4        13  159815   1444.                           36174   36538
$ ... 102 like lines cut
$ FEMAP Load Set 15 : Left1 Absorb 0.7 0.0
PLOAD4        15  159355   1666.                           36204   36843
PLOAD4        15  159448   1666.                           36200   36814
PLOAD4        15  159459   1666.                           36199   36867
PLOAD4        15  159461   1666.                           36161   36816
PLOAD4        15  159465   1666.                           36197   36138
PLOAD4        15  159567   1666.                           36228   36873
PLOAD4        15  159571   1666.                           36228   36873
PLOAD4        15  159751   1666.                           36205   36877
PLOAD4        15  159816   1666.                           36226   36872
PLOAD4        15  159831   1666.                           36174   36538
PLOAD4        15  159843   1666.                           36202   36522
PLOAD4        15  159853   1666.                           36192   36814
PLOAD4        15  159887   1666.                           36196   36138
PLOAD4        15  159932   1666.                           36186   36389
PLOAD4        15  159933   1666.                           36188   36377
PLOAD4        15  160001   1666.                           36199   36866
PLOAD4        15  160008   1666.                           36201   36522
PLOAD4        15  160107   1666.                           36203   36570
PLOAD4        15  160108   1666.                           36202   36571
PLOAD4        15  160117   1666.                           36202   36570
$ ... 51 like lines cut
$ FEMAP Load Set 16 : Left2 Absorb 0.7 0.0
PLOAD4        16  159948   1777.                           36214   36496
PLOAD4        16  160106   1777.                           35984   36496
PLOAD4        16  160142   1777.                           36155   36342
PLOAD4        16  160280   1777.                           35985   36442
PLOAD4        16  160281   1777.                           36158   36511
PLOAD4        16  160282   1777.                           35985   36442
PLOAD4        16  160374   1777.                           36161   35978
PLOAD4        16  160442   1777.                           36159   36493
PLOAD4        16  160782   1777.                           35981   36008
PLOAD4        16  160811   1777.                           36159   36869
PLOAD4        16  160886   1777.                           35981   36008
PLOAD4        16  160938   1777.                           36155   36342
PLOAD4        16  161044   1777.                           36159   36511
PLOAD4        16  161063   1777.                           36161   36153
$ FEMAP Property 1 : Untitled
PSOLID         1       1       0        
$ FEMAP Material 1 : Untitled
MAT1           1                              0.      0.      0.        
GRID       35967       0 0.38723      0.-2.01287       0        
GRID       35971       0      1.      0.-1.43776       0        
GRID       35972       0      1.      0.-1.15021       0        
GRID       35974       0      1.      0.-0.57511       0        
GRID       35975       0      1.      0.-0.28755       0        
GRID       35976       0      1.      0.      0.       0        
GRID       35978       0 0.38723      0.      0.       0        
GRID       35980       00.080847      0.-0.28755       0        
GRID       35981       00.080847      0.-0.57511       0        
GRID       35984       00.080847      0.-1.43776       0        
GRID       35985       00.080847      0.-1.72532       0        
GRID       35987       0     0.9      0.-0.90611       0        
GRID       35988       0     0.9      0.-1.20149       0        
GRID       35993       0 0.11464      0.-1.24013       0        
GRID       35997       0 0.11464      0.-0.57538       0        
GRID       36001       0 0.88536      0.-0.57538       0        
GRID       36002       0 0.44236      0.-0.27357       0        
GRID       36003       0 0.65019      0.-1.63992       0        
GRID       36004       0  0.7298      0. -0.3591       0        
GRID       36005       0 0.89308      0. -0.4716       0        
$ ... 558 like lines cut
CTETRA    159301       1   36116   36109   36237   36166                        
CTETRA    159302       1   36810   36811   36767   36765                        
CTETRA    159303       1   36810   36811   36765   36464                        
CTETRA    159304       1   36810   36471   36811   36464                        
CTETRA    159305       1   36759   36810   36763   36760                        
CTETRA    159306       1   36810   36812   36760   36767                        
CTETRA    159307       1   36720   36784   36607   36813                        
CTETRA    159308       1   36441   36444   36814   36445                        
CTETRA    159309       1   36174   36299   36538   36544                        
CTETRA    159310       1   36815   36581   36509   36198                        
CTETRA    159311       1   36202   36233   36571   36572                        
CTETRA    159312       1   36815   36197   36816   36817                        
CTETRA    159313       1   36815   36197   36818   36198                        
CTETRA    159314       1   36815   36816   36423   36817                        
CTETRA    159315       1   36815   36422   36816   36221                        
CTETRA    159316       1   36819   36811   36757   36730                        
CTETRA    159317       1   36820   36821   36819   36770                        
CTETRA    159318       1   36819   36770   36773   36820                        
CTETRA    159319       1   36819   36773   36756   36463                        
CTETRA    159320       1   36463   36822   36811   36819                        
$ ... 1825 like lines cut
ENDDATA
