ID C:\Program_Files\!Geometr,FEMAP
SOL SESTATICS
TIME 10000
CEND
  ECHO = NONE
  DISPLACEMENT(PLOT) = ALL
  SPCFORCE(PLOT) = ALL
  OLOAD(PLOT) = ALL
  FORCE(PLOT,CORNER) = ALL
  STRESS(PLOT,CORNER) = ALL
  LOAD = 4
BEGIN BULK
$ ***************************************************************************
$   Written by : FEMAP
$   Version    : 7.00
$   Translator : MSC/NASTRAN
$   From Model : C:\Program_Files\!Geometry!\acoustic\air\simplified\Solid\Model.MOD
$   Date       : Fri Feb 08 00:24:54 2008
$ ***************************************************************************
$
PARAM,POST,-1
PARAM,OGEOM,NO
PARAM,AUTOSPC,YES
PARAM,GRDPNT,0
CORD2C         1       0      0.      0.      0.      0.      0.      1.+FEMAPC1
+FEMAPC1      1.      0.      1.
CORD2S         2       0      0.      0.      0.      0.      0.      1.+FEMAPC2
+FEMAPC2      1.      0.      1.
$ FEMAP Load Set 1 : Sou1 Vn 0.0 0.0
PLOAD4         1  164811    111.                           36797   39915
PLOAD4         1  164926    111.                           36804   39915
PLOAD4         1  165990    111.                           36809   40901
PLOAD4         1  167219    111.                           36794   40222
PLOAD4         1  168289    111.                           36795   40138
PLOAD4         1  168290    111.                           36802   40138
PLOAD4         1  168368    111.                           36810   40372
PLOAD4         1  168966    111.                           36797   39308
PLOAD4         1  169131    111.                           36812   36697
PLOAD4         1  169440    111.                           36801   40372
PLOAD4         1  169511    111.                           36799   36700
PLOAD4         1  169573    111.                           36774   39307
PLOAD4         1  169582    111.                           36768   40308
PLOAD4         1  169601    111.                           36774   39308
PLOAD4         1  169610    111.                           36806   36692
PLOAD4         1  169647    111.                           37007   36692
PLOAD4         1  169867    111.                           36806   37375
PLOAD4         1  170495    111.                           36796   39915
PLOAD4         1  171297    111.                           36771   39915
PLOAD4         1  171454    111.                           36796   40150
$ ... 52 like lines cut
$ FEMAP Load Set 2 : Sou2 Vn 0.0 0.0
PLOAD4         2  164607    222.                           36836   37078
PLOAD4         2  167150    222.                           36838   40244
PLOAD4         2  167209    222.                           36838   40243
PLOAD4         2  168921    222.                           36861   40676
PLOAD4         2  168929    222.                           36842   40129
PLOAD4         2  169595    222.                           36842   40129
PLOAD4         2  169658    222.                           36836   40243
PLOAD4         2  170484    222.                           36860   40676
PLOAD4         2  170487    222.                           36771   40131
PLOAD4         2  170493    222.                           36843   39268
PLOAD4         2  170957    222.                           39050   39268
PLOAD4         2  170961    222.                           36829   40666
PLOAD4         2  170972    222.                           36836   37070
PLOAD4         2  171059    222.                           36863   41194
PLOAD4         2  171513    222.                           36841   40149
PLOAD4         2  171565    222.                           36841   40676
PLOAD4         2  171631    222.                           36841   40149
PLOAD4         2  171689    222.                           36831   40244
PLOAD4         2  171692    222.                           36838   41194
PLOAD4         2  173088    222.                           36837   40243
$ ... 16 like lines cut
$ FEMAP Load Set 3 : Sou3 Vn 0.0 0.0
PLOAD4         3  165405    333.                           39051   39257
PLOAD4         3  166743    333.                           36892   41054
PLOAD4         3  166810    333.                           36892   41054
PLOAD4         3  167291    333.                           36894   40658
PLOAD4         3  167600    333.                           36878   36972
PLOAD4         3  167626    333.                           36874   41132
PLOAD4         3  167779    333.                           36882   41132
PLOAD4         3  168158    333.                           36888   41093
PLOAD4         3  168365    333.                           36885   40685
PLOAD4         3  168412    333.                           36903   39817
PLOAD4         3  168466    333.                           36896   41093
PLOAD4         3  168468    333.                           36902   39815
PLOAD4         3  168986    333.                           36880   37083
PLOAD4         3  168997    333.                           36822   39817
PLOAD4         3  169246    333.                           36899   40465
PLOAD4         3  169574    333.                           36877   36971
PLOAD4         3  169616    333.                           36887   40174
PLOAD4         3  169620    333.                           36880   37087
PLOAD4         3  169638    333.                           36902   40658
PLOAD4         3  170026    333.                           36923   36970
$ ... 70 like lines cut
$ FEMAP Load Set 4 : Sou4 Vn -.001 0.0
PLOAD4         4  164543    444.                           36942   39792
PLOAD4         4  164991    444.                           36954   40328
PLOAD4         4  165021    444.                           36953   40328
PLOAD4         4  165366    444.                           36936   36117
PLOAD4         4  166706    444.                           36936   40342
PLOAD4         4  167029    444.                           36944   40961
PLOAD4         4  167064    444.                           36943   40961
PLOAD4         4  167600    444.                           36851   36878
PLOAD4         4  168502    444.                           36951   39792
PLOAD4         4  169104    444.                           36955   40239
PLOAD4         4  169587    444.                           36959   41001
PLOAD4         4  169594    444.                           36936   40342
PLOAD4         4  169629    444.                           36961   40328
PLOAD4         4  169632    444.                           36910   36118
PLOAD4         4  169633    444.                           36956   40238
PLOAD4         4  170026    444.                           36970   36876
PLOAD4         4  170104    444.                           36943   40424
PLOAD4         4  170282    444.                           36946   40341
PLOAD4         4  170804    444.                           36953   40328
PLOAD4         4  170947    444.                           36943   40534
$ ... 88 like lines cut
$ FEMAP Load Set 5 : Sou5 Vn 0.0 0.0
PLOAD4         5  165237    555.                           37044   36241
PLOAD4         5  169273    555.                           36172   36245
PLOAD4         5  169294    555.                           36173   36253
PLOAD4         5  169317    555.                           36174   36253
PLOAD4         5  169328    555.                           36176   36223
PLOAD4         5  169764    555.                           38311   36249
PLOAD4         5  170148    555.                           38311   36229
PLOAD4         5  170160    555.                           36172   36249
PLOAD4         5  170818    555.                           36164   36252
PLOAD4         5  170819    555.                           36174   36254
PLOAD4         5  170835    555.                           36199   36256
PLOAD4         5  171430    555.                           36159   39751
PLOAD4         5  172025    555.                           36153   36255
PLOAD4         5  172032    555.                           36174   36255
PLOAD4         5  172314    555.                           36172   36244
PLOAD4         5  172771    555.                           36162   36254
PLOAD4         5  172981    555.                           36176   36256
PLOAD4         5  173267    555.                           36176   36267
PLOAD4         5  173486    555.                           36197   36224
PLOAD4         5  173858    555.                           36198   36224
$ ... 16 like lines cut
$ FEMAP Load Set 6 : Top Absorb 0.5 0.0
PLOAD4         6  164853    666.                           36589   39667
PLOAD4         6  164856    666.                           36390   40193
PLOAD4         6  164869    666.                           39009   39665
PLOAD4         6  164891    666.                           36493   39417
PLOAD4         6  165185    666.                           36653   40277
PLOAD4         6  165493    666.                           36589   39975
PLOAD4         6  165743    666.                           36525   39464
PLOAD4         6  165792    666.                           36320   39460
PLOAD4         6  165953    666.                           36540   40302
PLOAD4         6  166033    666.                           36631   40336
PLOAD4         6  166098    666.                           36384   40935
PLOAD4         6  166099    666.                           36384   40935
PLOAD4         6  166100    666.                           36298   40223
PLOAD4         6  166115    666.                           36399   40942
PLOAD4         6  166136    666.                           36399   40942
PLOAD4         6  166178    666.                           36518   40100
PLOAD4         6  166278    666.                           36182   40976
PLOAD4         6  166353    666.                           36525   39464
PLOAD4         6  166786    666.                           36473   40418
PLOAD4         6  167235    666.                           36518   40100
$ ... 610 like lines cut
$ FEMAP Load Set 7 : Bottom Absorb 0.1 0.0
PLOAD4         7  164631    777.                           36144   39925
PLOAD4         7  164933    777.                           36107   40159
PLOAD4         7  165000    777.                           36119   36939
PLOAD4         7  165004    777.                           36118   36938
PLOAD4         7  165240    777.                           36095   36935
PLOAD4         7  165303    777.                           35990   39231
PLOAD4         7  165328    777.                           36104   38446
PLOAD4         7  165343    777.                           36117   40342
PLOAD4         7  165366    777.                           36906   36936
PLOAD4         7  165447    777.                           36021   37287
PLOAD4         7  165449    777.                           36059   40085
PLOAD4         7  165820    777.                           36081   40147
PLOAD4         7  165874    777.                           36081   40147
PLOAD4         7  165948    777.                           36082   40405
PLOAD4         7  165951    777.                           36082   40848
PLOAD4         7  166025    777.                           36082   40409
PLOAD4         7  166206    777.                           36137   39927
PLOAD4         7  166214    777.                           36117   40342
PLOAD4         7  166520    777.                           36138   38483
PLOAD4         7  166582    777.                           36113   40236
$ ... 257 like lines cut
$ FEMAP Load Set 8 : Seat_left Absorb 1.0 0.0
PLOAD4         8  166224    888.                           38379   40366
PLOAD4         8  167260    888.                           38371   39946
PLOAD4         8  169154    888.                           38581   38628
PLOAD4         8  169683    888.                           38377   40451
PLOAD4         8  169715    888.                           38868   40653
PLOAD4         8  169723    888.                           38376   40451
PLOAD4         8  170141    888.                           38383   40952
PLOAD4         8  170193    888.                           38384   40680
PLOAD4         8  170206    888.                           38371   38624
PLOAD4         8  170395    888.                           38981   38957
PLOAD4         8  170601    888.                           38994   40362
PLOAD4         8  171205    888.                           38582   38628
PLOAD4         8  171225    888.                           38377   40453
PLOAD4         8  171226    888.                           38372   40952
PLOAD4         8  171234    888.                           38380   40680
PLOAD4         8  171311    888.                           38367   40653
PLOAD4         8  171597    888.                           38387   41143
PLOAD4         8  171726    888.                           38380   40362
PLOAD4         8  171729    888.                           38384   40680
PLOAD4         8  171735    888.                           38393   41143
$ ... 816 like lines cut
$ FEMAP Load Set 10 : Seat_back Absorb 1.0 0.0
PLOAD4        10  165167   1111.                           38135   40503
PLOAD4        10  165189   1111.                           38127   37285
PLOAD4        10  165198   1111.                           38101   40513
PLOAD4        10  165288   1111.                           38138   40508
PLOAD4        10  165406   1111.                           38127   36975
PLOAD4        10  165453   1111.                           38152   40544
PLOAD4        10  165983   1111.                           38140   40081
PLOAD4        10  167717   1111.                           35975   39080
PLOAD4        10  169151   1111.                           38129   40508
PLOAD4        10  169165   1111.                           38136   40507
PLOAD4        10  169787   1111.                           38131   40870
PLOAD4        10  169788   1111.                           38126   37285
PLOAD4        10  170105   1111.                           38130   40853
PLOAD4        10  170227   1111.                           38101   40507
PLOAD4        10  170684   1111.                           38175   40869
PLOAD4        10  170787   1111.                           35973   36084
PLOAD4        10  171015   1111.                           38125   37285
PLOAD4        10  171019   1111.                           38124   37287
PLOAD4        10  171154   1111.                           38158   36084
PLOAD4        10  171175   1111.                           38154   36092
$ ... 340 like lines cut
$ FEMAP Load Set 11 : Glass_front Absorb 0.3 0.
PLOAD4        11  164803   1222.                           36721   40137
PLOAD4        11  164851   1222.                           36714   40138
PLOAD4        11  165035   1222.                           36726   40311
PLOAD4        11  165389   1222.                           36712   40373
PLOAD4        11  166445   1222.                           36736   40801
PLOAD4        11  166508   1222.                           36754   40218
PLOAD4        11  166578   1222.                           36746   40143
PLOAD4        11  166581   1222.                           36702   40374
PLOAD4        11  166585   1222.                           36693   36808
PLOAD4        11  167454   1222.                           36757   40193
PLOAD4        11  168518   1222.                           36703   40374
PLOAD4        11  168925   1222.                           36714   39917
PLOAD4        11  169038   1222.                           36714   39915
PLOAD4        11  169086   1222.                           36757   40224
PLOAD4        11  169126   1222.                           36742   39793
PLOAD4        11  169527   1222.                           36730   39919
PLOAD4        11  169535   1222.                           36727   40373
PLOAD4        11  169537   1222.                           36741   40947
PLOAD4        11  169540   1222.                           36721   40137
PLOAD4        11  169544   1222.                           36724   37807
$ ... 160 like lines cut
$ FEMAP Load Set 12 : Glass_back Absorb 0.3 0.0
PLOAD4        12  164708   1333.                           36282   40011
PLOAD4        12  164930   1333.                           36289   40274
PLOAD4        12  164934   1333.                           36290   40277
PLOAD4        12  165098   1333.                           36241   37044
PLOAD4        12  165109   1333.                           36240   37343
PLOAD4        12  165121   1333.                           36279   40458
PLOAD4        12  165126   1333.                           36280   40458
PLOAD4        12  166021   1333.                           36288   40275
PLOAD4        12  166022   1333.                           36342   40275
PLOAD4        12  166023   1333.                           36184   40274
PLOAD4        12  166063   1333.                           36231   40922
PLOAD4        12  166088   1333.                           36217   40727
PLOAD4        12  166413   1333.                           36290   40276
PLOAD4        12  166805   1333.                           36276   40727
PLOAD4        12  167549   1333.                           36221   40830
PLOAD4        12  167726   1333.                           36244   40429
PLOAD4        12  167755   1333.                           36292   40976
PLOAD4        12  168177   1333.                           36288   40976
PLOAD4        12  168392   1333.                           36268   36177
PLOAD4        12  168454   1333.                           36186   39770
$ ... 172 like lines cut
$ FEMAP Load Set 13 : Glass_left Absorb 0.3 0.0
PLOAD4        13  164622   1444.                           38098   39783
PLOAD4        13  164646   1444.                           37039   39783
PLOAD4        13  164911   1444.                           37813   40260
PLOAD4        13  164938   1444.                           37867   40282
PLOAD4        13  164945   1444.                           37875   36462
PLOAD4        13  165039   1444.                           37867   40385
PLOAD4        13  165051   1444.                           37817   40397
PLOAD4        13  165135   1444.                           37902   40100
PLOAD4        13  165136   1444.                           37901   40100
PLOAD4        13  165265   1444.                           38086   40552
PLOAD4        13  165424   1444.                           37843   40645
PLOAD4        13  166173   1444.                           37903   40467
PLOAD4        13  166175   1444.                           37899   40954
PLOAD4        13  166179   1444.                           37903   40467
PLOAD4        13  166188   1444.                           37781   40960
PLOAD4        13  166309   1444.                           37939   40620
PLOAD4        13  166349   1444.                           38020   40997
PLOAD4        13  166430   1444.                           38086   39783
PLOAD4        13  166503   1444.                           37997   39988
PLOAD4        13  166507   1444.                           37748   40975
$ ... 790 like lines cut
$ FEMAP Load Set 15 : Left1 Absorb 0.7 0.0
PLOAD4        15  164555   1666.                           37012   36765
PLOAD4        15  164607   1666.                           36834   36836
PLOAD4        15  164743   1666.                           37096   40053
PLOAD4        15  164754   1666.                           37181   40067
PLOAD4        15  165098   1666.                           36205   36241
PLOAD4        15  165260   1666.                           37348   40552
PLOAD4        15  165312   1666.                           37282   39933
PLOAD4        15  165406   1666.                           38126   38127
PLOAD4        15  165659   1666.                           37222   40790
PLOAD4        15  165826   1666.                           37081   40522
PLOAD4        15  165894   1666.                           37228   40861
PLOAD4        15  166227   1666.                           37190   40755
PLOAD4        15  166233   1666.                           36975   40513
PLOAD4        15  166514   1666.                           37121   38871
PLOAD4        15  166632   1666.                           37235   41046
PLOAD4        15  166633   1666.                           37220   41046
PLOAD4        15  166893   1666.                           37017   40585
PLOAD4        15  166916   1666.                           37202   38736
PLOAD4        15  166966   1666.                           37124   38870
PLOAD4        15  166981   1666.                           37090   40526
$ ... 417 like lines cut
$ FEMAP Load Set 16 : Left2 Absorb 0.7 0.0
PLOAD4        16  165447   1777.                           37242   36147
PLOAD4        16  168501   1777.                           37333   39792
PLOAD4        16  168783   1777.                           37332   40815
PLOAD4        16  168801   1777.                           37280   39933
PLOAD4        16  168970   1777.                           37286   40544
PLOAD4        16  169099   1777.                           36993   36950
PLOAD4        16  169206   1777.                           37302   38792
PLOAD4        16  169234   1777.                           36006   36129
PLOAD4        16  169244   1777.                           37309   38753
PLOAD4        16  169245   1777.                           37329   36126
PLOAD4        16  169260   1777.                           37329   40817
PLOAD4        16  169710   1777.                           37287   40544
PLOAD4        16  169766   1777.                           37296   39926
PLOAD4        16  169782   1777.                           38124   38143
PLOAD4        16  169788   1777.                           37285   38127
PLOAD4        16  169795   1777.                           37289   39929
PLOAD4        16  169808   1777.                           37313   38746
PLOAD4        16  169815   1777.                           37338   40813
PLOAD4        16  169828   1777.                           36005   36129
PLOAD4        16  170089   1777.                           37285   40503
$ ... 140 like lines cut
$ FEMAP Property 1 : Untitled
PSOLID         1       1       0        
$ FEMAP Material 1 : Untitled
MAT1           1                              0.      0.      0.        
GRID       35967       0 0.18298      0.-2.01287       0        
GRID       35969       0 0.38723      0.-2.01287       0        
GRID       35971       0 0.59149      0.-2.01287       0        
GRID       35972       0 0.69362      0.-2.01287       0        
GRID       35973       0 0.79574      0.-2.01287       0        
GRID       35975       0      1.      0.-2.01287       0        
GRID       35978       0      1.      0.-1.69505       0        
GRID       35979       0      1.      0.-1.58911       0        
GRID       35980       0      1.      0.-1.48317       0        
GRID       35981       0      1.      0.-1.37723       0        
GRID       35982       0      1.      0.-1.27129       0        
GRID       35983       0      1.      0.-1.16535       0        
GRID       35984       0      1.      0.-1.05941       0        
GRID       35987       0      1.      0.-0.74158       0        
GRID       35988       0      1.      0.-0.63564       0        
GRID       35990       0      1.      0.-0.42376       0        
GRID       35991       0      1.      0.-0.31782       0        
GRID       35992       0      1.      0.-0.21188       0        
GRID       35993       0      1.      0.-0.10594       0        
GRID       35994       0      1.      0.      0.       0        
$ ... 4472 like lines cut
CTETRA    164531       1   39771   39772   39434   39773                        
CTETRA    164532       1   39771   39774   39775   39776                        
CTETRA    164533       1   39771   38921   39772   38572                        
CTETRA    164534       1   39775   39771   39777   39774                        
CTETRA    164535       1   39771   39776   39772   39773                        
CTETRA    164536       1   39771   39777   38540   39778                        
CTETRA    164537       1   39779   39780   39781   39782                        
CTETRA    164538       1   38333   38086   39783   37039                        
CTETRA    164539       1   39782   39780   39784   39785                        
CTETRA    164540       1   39782   39786   39787   39788                        
CTETRA    164541       1   39782   39786   39788   39789                        
CTETRA    164542       1   39782   39790   39786   39791                        
CTETRA    164543       1   36943   39792   36942   36950                        
CTETRA    164544       1   39782   39780   39781   39793                        
CTETRA    164545       1   39786   39789   39794   39795                        
CTETRA    164546       1   39786   39789   39791   39794                        
CTETRA    164547       1   39796   39797   39798   39799                        
CTETRA    164548       1   39796   39798   39800   39801                        
CTETRA    164549       1   39796   39802   39803   39804                        
CTETRA    164550       1   39796   39805   39798   39806                        
$ ... 18199 like lines cut
ENDDATA
