ID C:\Program_Files\!Geometr,FEMAP
SOL SESTATICS
TIME 10000
CEND
  ECHO = NONE
  DISPLACEMENT(PLOT) = ALL
  SPCFORCE(PLOT) = ALL
  OLOAD(PLOT) = ALL
  FORCE(PLOT,CORNER) = ALL
  STRESS(PLOT,CORNER) = ALL
  LOAD = 1
BEGIN BULK
$ ***************************************************************************
$   Written by : FEMAP
$   Version    : 7.00
$   Translator : MSC/NASTRAN
$   From Model : C:\Program_Files\!Geometry!\acoustic\air\simplified\Solid\Model.MOD
$   Date       : Wed Feb 06 09:04:36 2008
$ ***************************************************************************
$
PARAM,POST,-1
PARAM,OGEOM,NO
PARAM,AUTOSPC,YES
PARAM,GRDPNT,0
CORD2C         1       0      0.      0.      0.      0.      0.      1.+FEMAPC1
+FEMAPC1      1.      0.      1.
CORD2S         2       0      0.      0.      0.      0.      0.      1.+FEMAPC2
+FEMAPC2      1.      0.      1.
$ FEMAP Load Set 1 : Sou1 Vn 0.0 0.0
PLOAD4         1  153323    111.                           33993   33966
PLOAD4         1  153499    111.                           33988   33969
PLOAD4         1  153535    111.                           33986   33968
PLOAD4         1  153637    111.                           33986   34789
PLOAD4         1  153771    111.                           33999   34789
PLOAD4         1  153848    111.                           34073   34156
PLOAD4         1  153849    111.                           33996   34156
PLOAD4         1  153865    111.                           33992   33966
PLOAD4         1  154090    111.                           33998   33968
PLOAD4         1  154302    111.                           34010   34155
PLOAD4         1  154308    111.                           33993   33966
PLOAD4         1  154321    111.                           33998   34998
PLOAD4         1  154332    111.                           33998   33968
PLOAD4         1  154367    111.                           33998   33967
PLOAD4         1  154370    111.                           33997   34998
PLOAD4         1  154377    111.                           33991   33968
PLOAD4         1  154409    111.                           34009   33966
PLOAD4         1  154742    111.                           33986   34998
PLOAD4         1  154875    111.                           33988   33952
PLOAD4         1  154941    111.                           34009   33966
$ FEMAP Load Set 2 : Sou2 Vn 0.0 0.0
PLOAD4         2  152822    222.                           33987   35034
PLOAD4         2  153240    222.                           34004   35034
PLOAD4         2  153241    222.                           34004   35034
PLOAD4         2  153498    222.                           34004   35034
PLOAD4         2  153606    222.                           34008   34996
PLOAD4         2  153720    222.                           34071   34155
PLOAD4         2  154300    222.                           34024   34975
PLOAD4         2  154413    222.                           34071   34155
PLOAD4         2  154443    222.                           34009   34996
PLOAD4         2  154976    222.                           34008   34996
$ FEMAP Load Set 3 : Sou3 Vn 0.0 0.0
PLOAD4         3  152717    333.                           34026   34104
PLOAD4         3  152858    333.                           34030   34984
PLOAD4         3  152953    333.                           34030   35016
PLOAD4         3  153101    333.                           34018   34788
PLOAD4         3  153290    333.                           34033   34990
PLOAD4         3  153493    333.                           34022   34985
PLOAD4         3  153496    333.                           34004   34782
PLOAD4         3  153537    333.                           34031   35016
PLOAD4         3  153570    333.                           34030   35016
PLOAD4         3  153602    333.                           34035   34985
PLOAD4         3  153605    333.                           34018   34788
PLOAD4         3  153717    333.                           34031   34984
PLOAD4         3  153855    333.                           34030   35016
PLOAD4         3  154025    333.                           34033   35016
PLOAD4         3  154205    333.                           34012   34067
PLOAD4         3  154396    333.                           34019   34786
PLOAD4         3  154399    333.                           34028   34105
PLOAD4         3  154404    333.                           34029   35031
PLOAD4         3  154415    333.                           34028   34105
PLOAD4         3  154420    333.                           34012   34067
$ ... 10 like lines cut
$ FEMAP Load Set 4 : Sou4 Vn -.001 0.0
PLOAD4         4  152296    444.                           34013   35031
PLOAD4         4  152303    444.                           34129   35030
PLOAD4         4  152309    444.                           34129   35030
PLOAD4         4  152641    444.                           34059   35016
PLOAD4         4  153188    444.                           34067   34028
PLOAD4         4  153324    444.                           34039   33782
PLOAD4         4  153394    444.                           34039   33782
PLOAD4         4  153540    444.                           34059   34784
PLOAD4         4  153599    444.                           34054   35016
PLOAD4         4  153601    444.                           34053   35032
PLOAD4         4  153621    444.                           34052   35032
PLOAD4         4  153707    444.                           34057   35031
PLOAD4         4  153713    444.                           34047   35016
PLOAD4         4  153716    444.                           34726   34788
PLOAD4         4  153831    444.                           34727   34785
PLOAD4         4  153852    444.                           34013   35031
PLOAD4         4  153854    444.                           34057   35016
PLOAD4         4  153879    444.                           34053   35031
PLOAD4         4  153899    444.                           33753   35015
PLOAD4         4  154078    444.                           34052   35031
$ ... 10 like lines cut
$ FEMAP Load Set 5 : Sou5 Vn 0.0 0.0
PLOAD4         5  153742    555.                           34407   33847
PLOAD4         5  153751    555.                           33810   33842
PLOAD4         5  153752    555.                           34404   33830
PLOAD4         5  154064    555.                           33803   34754
PLOAD4         5  154103    555.                           33806   33839
PLOAD4         5  154330    555.                           34410   33854
PLOAD4         5  154505    555.                           33807   33847
PLOAD4         5  154525    555.                           34406   33846
PLOAD4         5  154743    555.                           33823   33854
PLOAD4         5  154745    555.                           33827   33846
PLOAD4         5  154746    555.                           33806   33839
PLOAD4         5  154870    555.                           33797   33830
PLOAD4         5  154888    555.                           33827   33846
PLOAD4         5  155050    555.                           34410   34754
$ FEMAP Load Set 6 : Top Absorb 0.5 0.0
PLOAD4         6  152342    666.                           33958   34957
PLOAD4         6  152500    666.                           33905   35008
PLOAD4         6  152551    666.                           33866   34798
PLOAD4         6  152629    666.                           33959   34957
PLOAD4         6  152735    666.                           33929   34949
PLOAD4         6  152769    666.                           33876   34767
PLOAD4         6  152833    666.                           33918   35009
PLOAD4         6  152863    666.                           33932   34962
PLOAD4         6  153145    666.                           33934   35035
PLOAD4         6  153203    666.                           33905   34800
PLOAD4         6  153255    666.                           33870   34776
PLOAD4         6  153257    666.                           33872   34834
PLOAD4         6  153278    666.                           33915   35013
PLOAD4         6  153280    666.                           33924   34948
PLOAD4         6  153411    666.                           33942   35047
PLOAD4         6  153416    666.                           33925   34948
PLOAD4         6  153430    666.                           33937   34873
PLOAD4         6  153463    666.                           33877   34874
PLOAD4         6  153502    666.                           34703   34864
PLOAD4         6  153503    666.                           33931   34962
$ ... 110 like lines cut
$ FEMAP Load Set 7 : Bottom Absorb 0.1 0.0
PLOAD4         7  152330    777.                           34129   35030
PLOAD4         7  152579    777.                           33792   35032
PLOAD4         7  152583    777.                           33792   35032
PLOAD4         7  152642    777.                           33789   34991
PLOAD4         7  152730    777.                           33790   34668
PLOAD4         7  153111    777.                           34459   34584
PLOAD4         7  153152    777.                           33795   34472
PLOAD4         7  153248    777.                           33783   34856
PLOAD4         7  153260    777.                           34733   34813
PLOAD4         7  153261    777.                           33748   34813
PLOAD4         7  153324    777.                           33782   34054
PLOAD4         7  153354    777.                           33772   34558
PLOAD4         7  153391    777.                           33782   35032
PLOAD4         7  153393    777.                           33792   35032
PLOAD4         7  153394    777.                           33753   34054
PLOAD4         7  153514    777.                           33773   34140
PLOAD4         7  153515    777.                           34733   34520
PLOAD4         7  153548    777.                           33771   34558
PLOAD4         7  153554    777.                           34733   34758
PLOAD4         7  153582    777.                           33785   34899
$ ... 57 like lines cut
$ FEMAP Load Set 8 : Seat_left Absorb 1.0 0.0
PLOAD4         8  152055    888.                           34676   34921
PLOAD4         8  152871    888.                           34615   34894
PLOAD4         8  153571    888.                           34444   34894
PLOAD4         8  153636    888.                           34447   34992
PLOAD4         8  153774    888.                           34447   34992
PLOAD4         8  153998    888.                           34676   34494
PLOAD4         8  154730    888.                           34496   34498
PLOAD4         8  154817    888.                           34615   34498
PLOAD4         8  153288    888.                           34579   34956
PLOAD4         8  153343    888.                           34453   34989
PLOAD4         8  153569    888.                           34441   34953
PLOAD4         8  153664    888.                           34453   34989
PLOAD4         8  153711    888.                           34453   34986
PLOAD4         8  154696    888.                           34616   34953
PLOAD4         8  154942    888.                           34453   34986
PLOAD4         8  154946    888.                           34453   34956
PLOAD4         8  153743    888.                           34458   34991
PLOAD4         8  153779    888.                           34458   34991
PLOAD4         8  154032    888.                           34579   33793
PLOAD4         8  154449    888.                           34458   35032
$ ... 252 like lines cut
$ FEMAP Load Set 10 : Seat_back Absorb 1.0 0.0
PLOAD4        10  152029   1111.                           34306   34899
PLOAD4        10  152493   1111.                           34313   34914
PLOAD4        10  152618   1111.                           34306   34899
PLOAD4        10  152622   1111.                           34288   34899
PLOAD4        10  152754   1111.                           34285   34911
PLOAD4        10  153180   1111.                           34292   34850
PLOAD4        10  153307   1111.                           34288   34897
PLOAD4        10  153309   1111.                           34287   34899
PLOAD4        10  153371   1111.                           34290   34914
PLOAD4        10  153374   1111.                           34287   34899
PLOAD4        10  153471   1111.                           34288   34897
PLOAD4        10  153472   1111.                           34309   34914
PLOAD4        10  153583   1111.                           34308   34897
PLOAD4        10  153660   1111.                           34305   34899
PLOAD4        10  153684   1111.                           34314   33786
PLOAD4        10  153697   1111.                           34120   34137
PLOAD4        10  153817   1111.                           34313   33785
PLOAD4        10  153836   1111.                           34285   34119
PLOAD4        10  153847   1111.                           34741   34851
PLOAD4        10  153975   1111.                           34314   34914
$ ... 176 like lines cut
$ FEMAP Load Set 11 : Glass_front Absorb 0.3 0.
PLOAD4        11  152510   1222.                           33971   34993
PLOAD4        11  152513   1222.                           33964   34253
PLOAD4        11  152515   1222.                           33967   34998
PLOAD4        11  152516   1222.                           33968   34998
PLOAD4        11  152561   1222.                           33971   34998
PLOAD4        11  152665   1222.                           33973   34999
PLOAD4        11  153093   1222.                           33976   34999
PLOAD4        11  153256   1222.                           33980   35000
PLOAD4        11  153323   1222.                           33993   33996
PLOAD4        11  153387   1222.                           33969   34789
PLOAD4        11  153500   1222.                           33952   33988
PLOAD4        11  153501   1222.                           33968   33999
PLOAD4        11  153591   1222.                           33970   34238
PLOAD4        11  153638   1222.                           33975   34993
PLOAD4        11  153719   1222.                           33952   34789
PLOAD4        11  153732   1222.                           33981   35051
PLOAD4        11  153850   1222.                           33946   34156
PLOAD4        11  153858   1222.                           33972   34998
PLOAD4        11  153860   1222.                           33980   34993
PLOAD4        11  153889   1222.                           33979   35007
$ ... 30 like lines cut
$ FEMAP Load Set 12 : Glass_back Absorb 0.3 0.0
PLOAD4        12  152229   1333.                           33861   35018
PLOAD4        12  153074   1333.                           33858   35042
PLOAD4        12  153124   1333.                           33840   35005
PLOAD4        12  153191   1333.                           33819   34887
PLOAD4        12  153192   1333.                           33856   34882
PLOAD4        12  153242   1333.                           33819   34882
PLOAD4        12  153243   1333.                           33856   35039
PLOAD4        12  153244   1333.                           33825   33807
PLOAD4        12  153297   1333.                           33814   35042
PLOAD4        12  153311   1333.                           33849   35042
PLOAD4        12  153389   1333.                           33847   34407
PLOAD4        12  153585   1333.                           34178   35003
PLOAD4        12  153670   1333.                           33854   34410
PLOAD4        12  153726   1333.                           33848   35004
PLOAD4        12  153742   1333.                           33825   34407
PLOAD4        12  153744   1333.                           33847   34407
PLOAD4        12  153745   1333.                           33831   35033
PLOAD4        12  153747   1333.                           33841   35033
PLOAD4        12  153748   1333.                           33830   35033
PLOAD4        12  153750   1333.                           33840   35003
$ ... 55 like lines cut
$ FEMAP Load Set 13 : Glass_left Absorb 0.3 0.0
PLOAD4        13  152250   1444.                           34247   35010
PLOAD4        13  152260   1444.                           34271   35024
PLOAD4        13  152312   1444.                           34282   35023
PLOAD4        13  152541   1444.                           34249   34995
PLOAD4        13  152543   1444.                           34250   34995
PLOAD4        13  152631   1444.                           34251   35006
PLOAD4        13  152813   1444.                           34269   35028
PLOAD4        13  152814   1444.                           34269   35028
PLOAD4        13  152817   1444.                           34262   35038
PLOAD4        13  152830   1444.                           34255   35011
PLOAD4        13  152834   1444.                           33892   35009
PLOAD4        13  152835   1444.                           34229   35009
PLOAD4        13  152892   1444.                           34148   35038
PLOAD4        13  152911   1444.                           34238   34995
PLOAD4        13  152914   1444.                           34254   34994
PLOAD4        13  152960   1444.                           34231   35027
PLOAD4        13  153042   1444.                           34262   34939
PLOAD4        13  153044   1444.                           34260   35056
PLOAD4        13  153052   1444.                           34235   34974
PLOAD4        13  153061   1444.                           34243   35054
$ ... 126 like lines cut
$ FEMAP Load Set 15 : Left1 Absorb 0.7 0.0
PLOAD4        15  152404   1666.                           34118   34952
PLOAD4        15  152504   1666.                           34118   34952
PLOAD4        15  152581   1666.                           34132   34956
PLOAD4        15  152602   1666.                           34090   34424
PLOAD4        15  152717   1666.                           34104   34024
PLOAD4        15  152887   1666.                           34103   34954
PLOAD4        15  153043   1666.                           34116   34940
PLOAD4        15  153081   1666.                           34112   34527
PLOAD4        15  153091   1666.                           34106   34533
PLOAD4        15  153117   1666.                           34101   34903
PLOAD4        15  153130   1666.                           34118   34901
PLOAD4        15  153149   1666.                           34104   34032
PLOAD4        15  153234   1666.                           34357   34317
PLOAD4        15  153299   1666.                           34404   34424
PLOAD4        15  153355   1666.                           34064   34605
PLOAD4        15  153381   1666.                           34150   34559
PLOAD4        15  153386   1666.                           34027   34028
PLOAD4        15  153454   1666.                           34116   34959
PLOAD4        15  153491   1666.                           34108   34537
PLOAD4        15  153653   1666.                           34135   34612
$ ... 57 like lines cut
$ FEMAP Load Set 16 : Left2 Absorb 0.7 0.0
PLOAD4        16  152285   1777.                           34132   35030
PLOAD4        16  152301   1777.                           34051   35030
PLOAD4        16  152352   1777.                           34129   35030
PLOAD4        16  152412   1777.                           34139   35043
PLOAD4        16  152430   1777.                           34142   33773
PLOAD4        16  153086   1777.                           34064   34540
PLOAD4        16  153147   1777.                           34143   33793
PLOAD4        16  153189   1777.                           34142   33793
PLOAD4        16  153264   1777.                           34133   34577
PLOAD4        16  153319   1777.                           34138   34304
PLOAD4        16  153513   1777.                           34126   33773
PLOAD4        16  153514   1777.                           33761   33773
PLOAD4        16  153788   1777.                           34142   33794
PLOAD4        16  153794   1777.                           34140   34540
PLOAD4        16  153973   1777.                           34062   34553
PLOAD4        16  153976   1777.                           34062   34471
PLOAD4        16  154148   1777.                           34126   34522
PLOAD4        16  154325   1777.                           34062   34471
PLOAD4        16  154419   1777.                           34067   34052
PLOAD4        16  154499   1777.                           34123   33736
$ ... 8 like lines cut
$ FEMAP Property 1 : Untitled
PSOLID         1       1       0        
$ FEMAP Material 1 : Untitled
MAT1           1                              0.      0.      0.        
GRID       33735       00.080847      0.-2.01287       0        
GRID       33736       0 0.21215      0.-2.01287       0        
GRID       33738       0 0.47477      0.-2.01287       0        
GRID       33739       0 0.60608      0.-2.01287       0        
GRID       33743       0      1.      0.-1.81158       0        
GRID       33745       0      1.      0.-1.40901       0        
GRID       33746       0      1.      0.-1.20772       0        
GRID       33748       0      1.      0.-0.80515       0        
GRID       33749       0      1.      0.-0.60386       0        
GRID       33750       0      1.      0.-0.40257       0        
GRID       33751       0      1.      0.-0.20129       0        
GRID       33753       0 0.81617      0.      0.       0        
GRID       33756       0 0.26468      0.      0.       0        
GRID       33761       00.080847      0.-1.15021       0        
GRID       33764       0     0.9      0.-0.61074       0        
GRID       33765       0     0.9      0.-0.90611       0        
GRID       33767       0 0.88536      0.-1.24013       0        
GRID       33771       0 0.11464      0.-1.24013       0        
GRID       33772       0     0.1      0.-1.20149       0        
GRID       33773       0     0.1      0.-0.90611       0        
$ ... 886 like lines cut
CTETRA    152021       1   34888   34889   34890   34891                        
CTETRA    152022       1   34888   34892   34889   34893                        
CTETRA    152023       1   34888   34444   34894   34895                        
CTETRA    152024       1   34888   34889   34892   34896                        
CTETRA    152025       1   34888   34894   34896   34895                        
CTETRA    152026       1   34897   33781   34898   34472                        
CTETRA    152027       1   34899   34900   34471   34472                        
CTETRA    152028       1   33785   33781   34898   34897                        
CTETRA    152029       1   34899   34306   34313   34312                        
CTETRA    152030       1   34899   33795   34311   33780                        
CTETRA    152031       1   34287   34288   34900   34899                        
CTETRA    152032       1   34899   34286   34900   34287                        
CTETRA    152033       1   34899   34897   34307   34288                        
CTETRA    152034       1   34901   34902   34903   34904                        
CTETRA    152035       1   34901   34905   34902   34906                        
CTETRA    152036       1   34901   34904   34117   34317                        
CTETRA    152037       1   34901   34118   34907   34366                        
CTETRA    152038       1   34901   34904   34318   34319                        
CTETRA    152039       1   34901   34904   34319   34906                        
CTETRA    152040       1   34906   34901   34908   34368                        
$ ... 3033 like lines cut
ENDDATA
