ID C:\Program_Files\!Geometr,FEMAP
SOL SESTATICS
TIME 10000
CEND
  ECHO = NONE
  DISPLACEMENT(PLOT) = ALL
  SPCFORCE(PLOT) = ALL
  OLOAD(PLOT) = ALL
  FORCE(PLOT,CORNER) = ALL
  STRESS(PLOT,CORNER) = ALL
  LOAD = 4
BEGIN BULK
$ ***************************************************************************
$   Written by : FEMAP
$   Version    : 7.00
$   Translator : MSC/NASTRAN
$   From Model : C:\Program_Files\!Geometry!\acoustic\air\simplified\Solid\Model.MOD
$   Date       : Fri Feb 08 00:28:14 2008
$ ***************************************************************************
$
PARAM,POST,-1
PARAM,OGEOM,NO
PARAM,AUTOSPC,YES
PARAM,GRDPNT,0
CORD2C         1       0      0.      0.      0.      0.      0.      1.+FEMAPC1
+FEMAPC1      1.      0.      1.
CORD2S         2       0      0.      0.      0.      0.      0.      1.+FEMAPC2
+FEMAPC2      1.      0.      1.
$ FEMAP Load Set 1 : Sou1 Vn 0.0 0.0
PLOAD4         1  162150    111.                           36500   38313
PLOAD4         1  164339    111.                           36480   38382
PLOAD4         1  164724    111.                           36484   38382
PLOAD4         1  165027    111.                           36476   38735
PLOAD4         1  165202    111.                           36481   38346
PLOAD4         1  165217    111.                           36487   36424
PLOAD4         1  165220    111.                           36485   36424
PLOAD4         1  165231    111.                           36480   38346
PLOAD4         1  165232    111.                           36461   38346
PLOAD4         1  165263    111.                           36479   38382
PLOAD4         1  165269    111.                           36482   36823
PLOAD4         1  165270    111.                           36483   38735
PLOAD4         1  165271    111.                           36469   36424
PLOAD4         1  165535    111.                           36461   38346
PLOAD4         1  166204    111.                           37855   37997
PLOAD4         1  166226    111.                           36479   38382
PLOAD4         1  166702    111.                           36477   38735
PLOAD4         1  167047    111.                           36483   36420
PLOAD4         1  167228    111.                           36476   36821
PLOAD4         1  167259    111.                           36483   36422
$ ... 22 like lines cut
$ FEMAP Load Set 2 : Sou2 Vn 0.0 0.0
PLOAD4         2  163027    222.                           36461   38546
PLOAD4         2  163030    222.                           36460   38546
PLOAD4         2  165019    222.                           36522   36665
PLOAD4         2  165046    222.                           36489   36660
PLOAD4         2  165365    222.                           36500   38756
PLOAD4         2  167505    222.                           36490   38756
PLOAD4         2  168088    222.                           36495   38004
PLOAD4         2  168539    222.                           36516   38004
PLOAD4         2  169275    222.                           36516   38274
PLOAD4         2  169486    222.                           36458   38434
PLOAD4         2  169493    222.                           36490   38434
PLOAD4         2  169608    222.                           36492   38756
PLOAD4         2  169735    222.                           36517   38274
PLOAD4         2  169874    222.                           36460   38756
$ FEMAP Load Set 3 : Sou3 Vn 0.0 0.0
PLOAD4         3  161986    333.                           36539   38490
PLOAD4         3  162155    333.                           36532   38426
PLOAD4         3  162370    333.                           36510   38315
PLOAD4         3  163109    333.                           36560   38753
PLOAD4         3  163337    333.                           36508   38316
PLOAD4         3  163575    333.                           36533   38753
PLOAD4         3  163653    333.                           36527   38426
PLOAD4         3  163837    333.                           36543   38581
PLOAD4         3  164136    333.                           36508   38647
PLOAD4         3  164690    333.                           36526   36578
PLOAD4         3  164775    333.                           36534   38753
PLOAD4         3  165327    333.                           36526   36667
PLOAD4         3  165849    333.                           36490   38424
PLOAD4         3  166119    333.                           37859   37998
PLOAD4         3  166153    333.                           36540   38490
PLOAD4         3  166200    333.                           37860   38000
PLOAD4         3  166225    333.                           36540   38425
PLOAD4         3  166471    333.                           36540   38425
PLOAD4         3  166640    333.                           36527   36578
PLOAD4         3  166648    333.                           36538   38426
$ ... 36 like lines cut
$ FEMAP Load Set 4 : Sou4 Vn -.001 0.0
PLOAD4         4  162514    444.                           35992   36074
PLOAD4         4  162787    444.                           36573   38321
PLOAD4         4  163194    444.                           36577   38507
PLOAD4         4  163344    444.                           36577   38315
PLOAD4         4  163422    444.                           36552   37991
PLOAD4         4  163921    444.                           36573   38727
PLOAD4         4  164135    444.                           36581   38647
PLOAD4         4  164137    444.                           36580   38647
PLOAD4         4  164145    444.                           36570   38329
PLOAD4         4  164690    444.                           36560   36526
PLOAD4         4  164899    444.                           36583   38000
PLOAD4         4  164906    444.                           36582   38315
PLOAD4         4  164911    444.                           36546   36072
PLOAD4         4  164920    444.                           36566   36070
PLOAD4         4  165229    444.                           35992   36070
PLOAD4         4  165290    444.                           36573   38753
PLOAD4         4  165305    444.                           36579   36527
PLOAD4         4  165318    444.                           36754   36798
PLOAD4         4  165320    444.                           36505   36667
PLOAD4         4  165329    444.                           36547   36053
$ ... 36 like lines cut
$ FEMAP Load Set 5 : Sou5 Vn 0.0 0.0
PLOAD4         5  164748    555.                           36129   36160
PLOAD4         5  164758    555.                           36111   36146
PLOAD4         5  164949    555.                           36109   36161
PLOAD4         5  164962    555.                           36099   36146
PLOAD4         5  164976    555.                           36108   36158
PLOAD4         5  165599    555.                           36110   36146
PLOAD4         5  165788    555.                           36111   38181
PLOAD4         5  165808    555.                           36129   36161
PLOAD4         5  166572    555.                           36100   36145
PLOAD4         5  167172    555.                           36096   37898
PLOAD4         5  167174    555.                           37895   38181
PLOAD4         5  167633    555.                           36108   36160
PLOAD4         5  167634    555.                           36100   36145
PLOAD4         5  167726    555.                           36096   37898
PLOAD4         5  168137    555.                           36108   36158
PLOAD4         5  168138    555.                           36108   36158
PLOAD4         5  168141    555.                           36109   36160
PLOAD4         5  168191    555.                           36127   36146
PLOAD4         5  168335    555.                           36108   36158
PLOAD4         5  168822    555.                           36102   36150
$ ... 8 like lines cut
$ FEMAP Load Set 6 : Top Absorb 0.5 0.0
PLOAD4         6  161894    666.                           36385   38325
PLOAD4         6  161908    666.                           36391   38233
PLOAD4         6  161933    666.                           36278   38443
PLOAD4         6  161940    666.                           36344   38459
PLOAD4         6  162030    666.                           36322   38375
PLOAD4         6  162135    666.                           36316   38562
PLOAD4         6  162145    666.                           36316   38562
PLOAD4         6  162230    666.                           36306   38260
PLOAD4         6  162243    666.                           36312   38265
PLOAD4         6  162283    666.                           36381   38453
PLOAD4         6  162325    666.                           36288   38361
PLOAD4         6  162342    666.                           36282   38361
PLOAD4         6  162411    666.                           36344   38459
PLOAD4         6  162419    666.                           37843   38055
PLOAD4         6  162535    666.                           36264   38730
PLOAD4         6  162707    666.                           36294   38261
PLOAD4         6  162756    666.                           36344   38459
PLOAD4         6  162881    666.                           36343   37919
PLOAD4         6  162898    666.                           36279   38443
PLOAD4         6  162921    666.                           36248   38293
$ ... 330 like lines cut
$ FEMAP Load Set 7 : Bottom Absorb 0.1 0.0
PLOAD4         7  161896    777.                           36055   38414
PLOAD4         7  162014    777.                           36051   38511
PLOAD4         7  162490    777.                           37407   37417
PLOAD4         7  162513    777.                           36082   37208
PLOAD4         7  162514    777.                           36074   36566
PLOAD4         7  162532    777.                           36086   36774
PLOAD4         7  162682    777.                           36750   38747
PLOAD4         7  163033    777.                           36079   36778
PLOAD4         7  163211    777.                           36078   36778
PLOAD4         7  163545    777.                           36066   38329
PLOAD4         7  163600    777.                           36036   38550
PLOAD4         7  163631    777.                           36075   38704
PLOAD4         7  163649    777.                           36073   38747
PLOAD4         7  163678    777.                           35980   37975
PLOAD4         7  163882    777.                           36037   38670
PLOAD4         7  164146    777.                           35989   38329
PLOAD4         7  164354    777.                           36084   38672
PLOAD4         7  164405    777.                           36056   38764
PLOAD4         7  164456    777.                           36043   38512
PLOAD4         7  164458    777.                           36044   38511
$ ... 156 like lines cut
$ FEMAP Load Set 8 : Seat_left Absorb 1.0 0.0
PLOAD4         8  162246    888.                           37378   38605
PLOAD4         8  164030    888.                           37351   37537
PLOAD4         8  164065    888.                           37367   37537
PLOAD4         8  164732    888.                           37376   38412
PLOAD4         8  165382    888.                           37356   38760
PLOAD4         8  165412    888.                           37370   38600
PLOAD4         8  165861    888.                           37361   38784
PLOAD4         8  165864    888.                           37360   38784
PLOAD4         8  165965    888.                           37374   38784
PLOAD4         8  166919    888.                           37360   38412
PLOAD4         8  167173    888.                           37364   38604
PLOAD4         8  167230    888.                           37358   38412
PLOAD4         8  167476    888.                           37369   37539
PLOAD4         8  167497    888.                           37371   38410
PLOAD4         8  167517    888.                           37377   38411
PLOAD4         8  167947    888.                           37377   38412
PLOAD4         8  168142    888.                           37368   38665
PLOAD4         8  168264    888.                           37371   38665
PLOAD4         8  168265    888.                           37371   38410
PLOAD4         8  168268    888.                           37371   38604
$ ... 518 like lines cut
$ FEMAP Load Set 10 : Seat_back Absorb 1.0 0.0
PLOAD4        10  162513   1111.                           37187   36082
PLOAD4        10  163154   1111.                           37196   38737
PLOAD4        10  163584   1111.                           37198   38670
PLOAD4        10  164348   1111.                           37198   38670
PLOAD4        10  164357   1111.                           37202   38671
PLOAD4        10  164461   1111.                           37199   38468
PLOAD4        10  164705   1111.                           37182   38137
PLOAD4        10  165359   1111.                           37207   36087
PLOAD4        10  165469   1111.                           37195   38470
PLOAD4        10  165471   1111.                           37196   38671
PLOAD4        10  165721   1111.                           37224   38466
PLOAD4        10  165727   1111.                           37189   36087
PLOAD4        10  165729   1111.                           36737   36771
PLOAD4        10  165737   1111.                           37203   38671
PLOAD4        10  165741   1111.                           37207   38673
PLOAD4        10  165809   1111.                           37205   38136
PLOAD4        10  165814   1111.                           37186   36038
PLOAD4        10  165915   1111.                           37194   36771
PLOAD4        10  166003   1111.                           37209   38671
PLOAD4        10  166366   1111.                           37205   38137
$ ... 218 like lines cut
$ FEMAP Load Set 11 : Glass_front Absorb 0.3 0.
PLOAD4        11  161905   1222.                           36448   38300
PLOAD4        11  162271   1222.                           36444   37038
PLOAD4        11  162560   1222.                           36432   38717
PLOAD4        11  162738   1222.                           36432   38717
PLOAD4        11  162884   1222.                           36424   38346
PLOAD4        11  163264   1222.                           36421   38735
PLOAD4        11  163302   1222.                           36432   38735
PLOAD4        11  163327   1222.                           36431   38346
PLOAD4        11  164629   1222.                           36447   38305
PLOAD4        11  164771   1222.                           36453   38305
PLOAD4        11  164913   1222.                           36434   38313
PLOAD4        11  165038   1222.                           36432   37045
PLOAD4        11  165045   1222.                           36409   38305
PLOAD4        11  165061   1222.                           36190   38027
PLOAD4        11  165217   1222.                           36467   36487
PLOAD4        11  165227   1222.                           36409   38305
PLOAD4        11  165271   1222.                           36424   36485
PLOAD4        11  165276   1222.                           36424   36485
PLOAD4        11  165278   1222.                           36422   38735
PLOAD4        11  165281   1222.                           36429   38382
$ ... 78 like lines cut
$ FEMAP Load Set 12 : Glass_back Absorb 0.3 0.0
PLOAD4        12  161839   1333.                           36157   37338
PLOAD4        12  162469   1333.                           36168   38405
PLOAD4        12  162688   1333.                           36164   38579
PLOAD4        12  163181   1333.                           36156   38794
PLOAD4        12  163196   1333.                           36176   38461
PLOAD4        12  163209   1333.                           36173   38579
PLOAD4        12  163411   1333.                           36165   38442
PLOAD4        12  164042   1333.                           36137   37148
PLOAD4        12  164422   1333.                           36156   38795
PLOAD4        12  164746   1333.                           36175   38457
PLOAD4        12  164748   1333.                           36160   36108
PLOAD4        12  164950   1333.                           36168   38228
PLOAD4        12  164965   1333.                           36173   38222
PLOAD4        12  164974   1333.                           36141   38509
PLOAD4        12  164976   1333.                           36091   36108
PLOAD4        12  165185   1333.                           36157   37319
PLOAD4        12  165476   1333.                           36144   38794
PLOAD4        12  165497   1333.                           36137   37148
PLOAD4        12  165592   1333.                           36172   36111
PLOAD4        12  165798   1333.                           36161   36109
$ ... 93 like lines cut
$ FEMAP Load Set 13 : Glass_left Absorb 0.3 0.0
PLOAD4        13  161779   1444.                           37083   38292
PLOAD4        13  161943   1444.                           37133   38457
PLOAD4        13  161973   1444.                           37075   38445
PLOAD4        13  161985   1444.                           37031   36450
PLOAD4        13  162019   1444.                           37096   38524
PLOAD4        13  162025   1444.                           37100   38455
PLOAD4        13  162054   1444.                           37057   38432
PLOAD4        13  162098   1444.                           37137   38451
PLOAD4        13  162271   1444.                           36415   36444
PLOAD4        13  162417   1444.                           37044   38434
PLOAD4        13  162496   1444.                           37117   38719
PLOAD4        13  162564   1444.                           37029   38717
PLOAD4        13  162754   1444.                           37093   38459
PLOAD4        13  162864   1444.                           37015   38447
PLOAD4        13  163055   1444.                           37037   38619
PLOAD4        13  163161   1444.                           37157   38509
PLOAD4        13  163198   1444.                           37153   38510
PLOAD4        13  163303   1444.                           36629   38636
PLOAD4        13  163360   1444.                           37161   38509
PLOAD4        13  163500   1444.                           36228   38454
$ ... 372 like lines cut
$ FEMAP Load Set 15 : Left1 Absorb 0.7 0.0
PLOAD4        15  161914   1666.                           36660   38432
PLOAD4        15  161958   1666.                           36716   38385
PLOAD4        15  162076   1666.                           36667   38573
PLOAD4        15  162085   1666.                           36672   38576
PLOAD4        15  162156   1666.                           36687   38600
PLOAD4        15  162240   1666.                           36587   38387
PLOAD4        15  162294   1666.                           36658   38576
PLOAD4        15  162475   1666.                           36714   38332
PLOAD4        15  162591   1666.                           36717   38470
PLOAD4        15  163060   1666.                           36726   37698
PLOAD4        15  163107   1666.                           36677   38783
PLOAD4        15  163152   1666.                           36814   38750
PLOAD4        15  163153   1666.                           36620   38750
PLOAD4        15  163168   1666.                           36644   37258
PLOAD4        15  163208   1666.                           36684   38600
PLOAD4        15  163218   1666.                           36587   38387
PLOAD4        15  163321   1666.                           36669   38576
PLOAD4        15  163609   1666.                           36686   38778
PLOAD4        15  163765   1666.                           36724   38789
PLOAD4        15  163847   1666.                           36729   38471
$ ... 214 like lines cut
$ FEMAP Load Set 16 : Left2 Absorb 0.7 0.0
PLOAD4        16  162532   1777.                           36739   36086
PLOAD4        16  162540   1777.                           36772   37206
PLOAD4        16  162689   1777.                           36750   38747
PLOAD4        16  163039   1777.                           36775   38646
PLOAD4        16  163612   1777.                           36772   38644
PLOAD4        16  164753   1777.                           36771   37194
PLOAD4        16  164823   1777.                           36587   38646
PLOAD4        16  164845   1777.                           36739   36086
PLOAD4        16  165249   1777.                           36796   38703
PLOAD4        16  165318   1777.                           36753   36566
PLOAD4        16  165472   1777.                           36767   37590
PLOAD4        16  165479   1777.                           36782   37620
PLOAD4        16  165480   1777.                           36781   37620
PLOAD4        16  165482   1777.                           36765   37620
PLOAD4        16  165495   1777.                           36782   37647
PLOAD4        16  165509   1777.                           36759   38748
PLOAD4        16  165514   1777.                           36798   38703
PLOAD4        16  165519   1777.                           36796   38747
PLOAD4        16  165520   1777.                           36597   38703
PLOAD4        16  165729   1777.                           36737   37206
$ ... 70 like lines cut
$ FEMAP Property 1 : Untitled
PSOLID         1       1       0        
$ FEMAP Material 1 : Untitled
MAT1           1                              0.      0.      0.        
GRID       35966       00.080847      0.-2.01287       0        
GRID       35968       0 0.34346      0.-2.01287       0        
GRID       35971       0 0.73738      0.-2.01287       0        
GRID       35973       0      1.      0.-2.01287       0        
GRID       35974       0      1.      0.-1.85803       0        
GRID       35979       0      1.      0.-1.08385       0        
GRID       35980       0      1.      0.-0.92902       0        
GRID       35981       0      1.      0.-0.77418       0        
GRID       35982       0      1.      0.-0.61934       0        
GRID       35983       0      1.      0.-0.46451       0        
GRID       35984       0      1.      0.-0.30967       0        
GRID       35989       0 0.60608      0.      0.       0        
GRID       35992       0 0.21215      0.      0.       0        
GRID       35994       00.080847      0.-0.13419       0        
GRID       35995       00.080847      0.-0.26838       0        
GRID       35997       00.080847      0.-0.53677       0        
GRID       36000       00.080847      0.-0.93934       0        
GRID       36001       00.080847      0.-1.07353       0        
GRID       36004       00.080847      0. -1.4761       0        
GRID       36006       00.080847      0.-1.74449       0        
$ ... 2200 like lines cut
CTETRA    161749       1   38237   38238   38239   38240                        
CTETRA    161750       1   38237   38241   38242   38243                        
CTETRA    161751       1   38237   38241   38244   38240                        
CTETRA    161752       1   38237   38245   38246   38247                        
CTETRA    161753       1   38248   38249   38250   38251                        
CTETRA    161754       1   38248   38249   38252   38253                        
CTETRA    161755       1   38248   38252   38251   38254                        
CTETRA    161756       1   38248   38255   38256   38257                        
CTETRA    161757       1   36304   38258   36305   38259                        
CTETRA    161758       1   38258   36305   38259   38260                        
CTETRA    161759       1   38260   38261   38262   38263                        
CTETRA    161760       1   38264   36307   38265   38260                        
CTETRA    161761       1   38266   38260   38267   38265                        
CTETRA    161762       1   38260   38264   38267   38265                        
CTETRA    161763       1   38260   38261   36300   38268                        
CTETRA    161764       1   38260   36299   38259   38268                        
CTETRA    161765       1   38260   38268   36300   36299                        
CTETRA    161766       1   38269   38270   38271   38272                        
CTETRA    161767       1   37353   37354   37541   37787                        
CTETRA    161768       1   38269   38273   38249   38274                        
$ ... 8303 like lines cut
ENDDATA
