ID C:\Users\Dima\Lame3d2\Mpl,FEMAP
SOL SESTATICS
TIME 10000
CEND
  ECHO = NONE
  DISPLACEMENT(PLOT) = ALL
  SPCFORCE(PLOT) = ALL
  OLOAD(PLOT) = ALL
  FORCE(PLOT,CORNER) = ALL
  STRESS(PLOT,CORNER) = ALL
  LOAD = 1
BEGIN BULK
$ ***************************************************************************
$   Written by : FEMAP
$   Version    : 7.00
$   Translator : MSC/NASTRAN
$   From Model : C:\Users\Dima\Lame3d2\Mpls_all\Exe\Ono_box\Solid\ono_box0.MOD
$   Date       : Sat Mar 29 11:37:22 2008
$ ***************************************************************************
$
PARAM,POST,-1
PARAM,OGEOM,NO
PARAM,AUTOSPC,YES
PARAM,GRDPNT,0
CORD2C         1       0      0.      0.      0.      0.      0.      1.+FEMAPC1
+FEMAPC1      1.      0.      1.
CORD2S         2       0      0.      0.      0.      0.      0.      1.+FEMAPC2
+FEMAPC2      1.      0.      1.
$ FEMAP Load Set 1 : Srcplane Vn -1.0 0.0
PLOAD4         1    1007    111.                             959     522
PLOAD4         1    1008    111.                             691     524
PLOAD4         1    1053    111.                             521     515
PLOAD4         1    1054    111.                             522     516
$ FEMAP Load Set 2 : Endwall Absorb 1.0 0.0
PLOAD4         2     869    222.                             126      12
PLOAD4         2     870    222.                               7    1250
PLOAD4         2     915    222.                             125      11
PLOAD4         2     916    222.                              12    1251
PLOAD4         2     961    222.                             124     835
PLOAD4         2     962    222.                              11     268
PLOAD4         2    1051    222.                             268     513
PLOAD4         2    1052    222.                             971     549
PLOAD4         2    1097    222.                             510     596
PLOAD4         2    1098    222.                             513     507
PLOAD4         2    1121    222.                             835     932
PLOAD4         2    1144    222.                             268     972
PLOAD4         2    1167    222.                             972     968
PLOAD4         2    1190    222.                             971     765
PLOAD4         2    1191    222.                             268    1260
PLOAD4         2    1192    222.                            1251    1259
PLOAD4         2    1193    222.                            1250    1285
PLOAD4         2    1260    222.                             510    1255
PLOAD4         2    1261    222.                            1260    1256
PLOAD4         2    1262    222.                            1259    1286
$ FEMAP Property 1 : ONO BOX
PSHELL         1       1      0.       1               1              0.
$ FEMAP Property 2 : INCLUSION
PSHELL         2       1      0.       1               1              0.
$ FEMAP Property 3 : Untitled
PSOLID         3       1       0        
$ FEMAP Material 1 : Untitled
MAT1           1                              0.      0.      0.        
GRID           7       0      0.   0.125     2.5       0        
GRID          11       0 0.23333   0.125     2.5       0        
GRID          12       0 0.11667   0.125     2.5       0        
GRID          14       0 0.11667    0.25      0.       0        
GRID          17       0    0.35   0.125      0.       0        
GRID          19       0 0.23333      0.      0.       0        
GRID          20       0 0.11667      0.      0.       0        
GRID          23       0 0.11667   0.125      0.       0        
GRID          24       0 0.23333   0.125      0.       0        
GRID          28       0      0.    0.25  2.3913       0        
GRID          29       0      0.    0.25 2.28261       0        
GRID          34       0      0.    0.25 1.73913       0        
GRID          35       0      0.    0.25 1.63043       0        
GRID          36       0      0.    0.25 1.52174       0        
GRID          42       0      0.    0.25 0.86957       0        
GRID          45       0      0.    0.25 0.54348       0        
GRID          49       0      0.    0.25  0.1087       0        
GRID          51       0      0.   0.125      0.       0        
GRID          53       0      0.      0.  0.1087       0        
GRID          57       0      0.      0. 0.54348       0        
$ ... 700 like lines cut
CHEXA        869       3     126      74      75       7     125     191+EL   O5
+EL   O5    1333      12                                                        
CHEXA        870       3       7      75      28    1249      12    1333+EL   O6
+EL   O6    1194    1250                                                        
CHEXA        871       3      74      73      76      75     191     189+EL   O7
+EL   O7    1334    1333                                                        
CHEXA        872       3      75      76      29      28    1333    1334+EL   O8
+EL   O8     319    1194                                                        
CHEXA        873       3      73      72      77      76     189     187+EL   O9
+EL   O9    1335    1334                                                        
CHEXA        874       3      76      77     314      29    1334    1335+EL   OA
+EL   OA     321     319                                                        
CHEXA        875       3      72      71      78      77     187     185+EL   OB
+EL   OB    1336    1335                                                        
CHEXA        876       3      77      78     313     314    1335    1336+EL   OC
+EL   OC    1200     321                                                        
CHEXA        877       3      71     131      79      78     185     183+EL   OD
+EL   OD    1337    1336                                                        
CHEXA        878       3      78      79    1149     313    1336    1337+EL   OE
+EL   OE     325    1200                                                        
CHEXA        879       3     131     132      80      79     183     181+EL   OF
+EL   OF    1338    1337                                                        
CHEXA        880       3      79      80    1278    1149    1337    1338+EL   OG
+EL   OG    1204     325                                                        
CHEXA        881       3     132     133      81      80     181     179+EL   OH
+EL   OH    1339    1338                                                        
CHEXA        882       3      80      81      34    1278    1338    1339+EL   OI
+EL   OI     329    1204                                                        
CHEXA        883       3     133      67      82      81     179     177+EL   OJ
+EL   OJ    1340    1339                                                        
CHEXA        884       3      81      82      35      34    1339    1340+EL   OK
+EL   OK    1208     329                                                        
CHEXA        885       3      67      66      83      82     177     175+EL   OL
+EL   OL    1341    1340                                                        
CHEXA        886       3      82      83      36      35    1340    1341+EL   OM
+EL   OM     333    1208                                                        
CHEXA        887       3      66      65      84      83     175     173+EL   ON
+EL   ON    1342    1341                                                        
CHEXA        888       3      83      84     307      36    1341    1342+EL   OO
+EL   OO    1212     333                                                        
CHEXA        889       3      65      64      85      84     173     171+EL   OP
+EL   OP    1343    1342                                                        
CHEXA        890       3      84      85     306     307    1342    1343+EL   OQ
+EL   OQ    1214    1212                                                        
CHEXA        891       3      64     138      86      85     171     169+EL   OR
+EL   OR    1344    1343                                                        
CHEXA        892       3      85      86    1272     306    1343    1344+EL   OS
+EL   OS    1216    1214                                                        
CHEXA        893       3     138     139      87      86     169     167+EL   OT
+EL   OT    1345    1344                                                        
CHEXA        894       3      86      87     304    1272    1344    1345+EL   OU
+EL   OU    1218    1216                                                        
CHEXA        895       3     139     140      88      87     167     165+EL   OV
+EL   OV    1346    1345                                                        
CHEXA        896       3      87      88    1158     304    1345    1346+EL   OW
+EL   OW     343    1218                                                        
CHEXA        897       3     140     141      89      88     165     163+EL   OX
+EL   OX    1347    1346                                                        
CHEXA        898       3      88      89      42    1158    1346    1347+EL   OY
+EL   OY     345     343                                                        
CHEXA        899       3     141     142      90      89     163     161+EL   OZ
+EL   OZ    1348    1347                                                        
CHEXA        900       3      89      90     301      42    1347    1348+EL   P0
+EL   P0    1224     345                                                        
CHEXA        901       3     142      58      91      90     161     159+EL   P1
+EL   P1    1349    1348                                                        
CHEXA        902       3      90      91    1161     301    1348    1349+EL   P2
+EL   P2    1226    1224                                                        
CHEXA        903       3      58      57      92      91     159     157+EL   P3
+EL   P3    1350    1349                                                        
CHEXA        904       3      91      92      45    1161    1349    1350+EL   P4
+EL   P4    1228    1226                                                        
CHEXA        905       3      57     145      93      92     157     155+EL   P5
+EL   P5    1351    1350                                                        
CHEXA        906       3      92      93     298      45    1350    1351+EL   P6
+EL   P6     353    1228                                                        
CHEXA        907       3     145     146      94      93     155     153+EL   P7
+EL   P7    1352    1351                                                        
CHEXA        908       3      93      94    1264     298    1351    1352+EL   P8
+EL   P8    1232     353                                                        
CHEXA        909       3     146     147      95      94     153     151+EL   P9
+EL   P9    1353    1352                                                        
CHEXA        910       3      94      95    1165    1264    1352    1353+EL   PA
+EL   PA    1234    1232                                                        
CHEXA        911       3     147      53      96      95     151     149+EL   PB
+EL   PB    1354    1353                                                        
CHEXA        912       3      95      96      49    1165    1353    1354+EL   PC
+EL   PC    1236    1234                                                        
CHEXA        913       3      53      97      51      96     149      20+EL   PD
+EL   PD      23    1354                                                        
CHEXA        914       3      96      51    1242      49    1354      23+EL   PE
+EL   PE      14    1236                                                        
CHEXA        915       3     125     191    1333      12     124     192+EL   PF
+EL   PF    1355      11                                                        
CHEXA        916       3      12    1333    1194    1250      11    1355+EL   PG
+EL   PG     318    1251                                                        
CHEXA        917       3     191     189    1334    1333     192     190+EL   PH
+EL   PH    1356    1355                                                        
CHEXA        918       3    1333    1334     319    1194    1355    1356+EL   PI
+EL   PI     320     318                                                        
CHEXA        919       3     189     187    1335    1334     190     188+EL   PJ
+EL   PJ    1357    1356                                                        
CHEXA        920       3    1334    1335     321     319    1356    1357+EL   PK
+EL   PK     322     320                                                        
CHEXA        921       3     187     185    1336    1335     188     186+EL   PL
+EL   PL    1358    1357                                                        
CHEXA        922       3    1335    1336    1200     321    1357    1358+EL   PM
+EL   PM     324     322                                                        
CHEXA        923       3     185     183    1337    1336     186     184+EL   PN
+EL   PN    1359    1358                                                        
CHEXA        924       3    1336    1337     325    1200    1358    1359+EL   PO
+EL   PO    1201     324                                                        
CHEXA        925       3     183     181    1338    1337     184     182+EL   PP
+EL   PP    1360    1359                                                        
CHEXA        926       3    1337    1338    1204     325    1359    1360+EL   PQ
+EL   PQ     328    1201                                                        
CHEXA        927       3     181     179    1339    1338     182     180+EL   PR
+EL   PR    1361    1360                                                        
CHEXA        928       3    1338    1339     329    1204    1360    1361+EL   PS
+EL   PS     330     328                                                        
CHEXA        929       3     179     177    1340    1339     180     178+EL   PT
+EL   PT    1362    1361                                                        
CHEXA        930       3    1339    1340    1208     329    1361    1362+EL   PU
+EL   PU     332     330                                                        
CHEXA        931       3     177     175    1341    1340     178     176+EL   PV
+EL   PV    1363    1362                                                        
CHEXA        932       3    1340    1341     333    1208    1362    1363+EL   PW
+EL   PW    1209     332                                                        
CHEXA        933       3     175     173    1342    1341     176     174+EL   PX
+EL   PX    1364    1363                                                        
CHEXA        934       3    1341    1342    1212     333    1363    1364+EL   PY
+EL   PY     336    1209                                                        
CHEXA        935       3     173     171    1343    1342     174     172+EL   PZ
+EL   PZ    1365    1364                                                        
CHEXA        936       3    1342    1343    1214    1212    1364    1365+EL   Q0
+EL   Q0    1213     336                                                        
CHEXA        937       3     171     169    1344    1343     172     170+EL   Q1
+EL   Q1    1366    1365                                                        
CHEXA        938       3    1343    1344    1216    1214    1365    1366+EL   Q2
+EL   Q2     340    1213                                                        
CHEXA        939       3     169     167    1345    1344     170     168+EL   Q3
+EL   Q3    1367    1366                                                        
CHEXA        940       3    1344    1345    1218    1216    1366    1367+EL   Q4
+EL   Q4     342     340                                                        
CHEXA        941       3     167     165    1346    1345     168     166+EL   Q5
+EL   Q5    1368    1367                                                        
CHEXA        942       3    1345    1346     343    1218    1367    1368+EL   Q6
+EL   Q6     344     342                                                        
CHEXA        943       3     165     163    1347    1346     166     164+EL   Q7
+EL   Q7    1369    1368                                                        
CHEXA        944       3    1346    1347     345     343    1368    1369+EL   Q8
+EL   Q8    1221     344                                                        
CHEXA        945       3     163     161    1348    1347     164     162+EL   Q9
+EL   Q9    1370    1369                                                        
CHEXA        946       3    1347    1348    1224     345    1369    1370+EL   QA
+EL   QA     348    1221                                                        
CHEXA        947       3     161     159    1349    1348     162     160+EL   QB
+EL   QB    1371    1370                                                        
CHEXA        948       3    1348    1349    1226    1224    1370    1371+EL   QC
+EL   QC    1225     348                                                        
CHEXA        949       3     159     157    1350    1349     160     158+EL   QD
+EL   QD    1372    1371                                                        
CHEXA        950       3    1349    1350    1228    1226    1371    1372+EL   QE
+EL   QE    1227    1225                                                        
CHEXA        951       3     157     155    1351    1350     158     156+EL   QF
+EL   QF    1373    1372                                                        
CHEXA        952       3    1350    1351     353    1228    1372    1373+EL   QG
+EL   QG    1229    1227                                                        
CHEXA        953       3     155     153    1352    1351     156     154+EL   QH
+EL   QH    1374    1373                                                        
CHEXA        954       3    1351    1352    1232     353    1373    1374+EL   QI
+EL   QI    1231    1229                                                        
CHEXA        955       3     153     151    1353    1352     154     152+EL   QJ
+EL   QJ    1375    1374                                                        
CHEXA        956       3    1352    1353    1234    1232    1374    1375+EL   QK
+EL   QK     358    1231                                                        
CHEXA        957       3     151     149    1354    1353     152     150+EL   QL
+EL   QL    1376    1375                                                        
CHEXA        958       3    1353    1354    1236    1234    1375    1376+EL   QM
+EL   QM     360     358                                                        
CHEXA        959       3     149      20      23    1354     150      19+EL   QN
+EL   QN      24    1376                                                        
CHEXA        960       3    1354      23      14    1236    1376      24+EL   QO
+EL   QO    1240     360                                                        
CHEXA        961       3     124     192    1355      11     966     884+EL   QP
+EL   QP     882     835                                                        
CHEXA        962       3      11    1355     318    1251     835     882+EL   QQ
+EL   QQ     837     268                                                        
CHEXA        963       3     192     190    1356    1355     884     885+EL   QR
+EL   QR     244     882                                                        
CHEXA        964       3    1355    1356     320     318     882     244+EL   QS
+EL   QS     838     837                                                        
CHEXA        965       3     190     188    1357    1356     885     831+EL   QT
+EL   QT     245     244                                                        
CHEXA        966       3    1356    1357     322     320     244     245+EL   QU
+EL   QU     463     838                                                        
CHEXA        967       3     188     186    1358    1357     831     887+EL   QV
+EL   QV     879     245                                                        
CHEXA        968       3    1357    1358     324     322     245     879+EL   QW
+EL   QW    1075     463                                                        
CHEXA        969       3     186     184    1359    1358     887     829+EL   QX
+EL   QX     247     879                                                        
CHEXA        970       3    1358    1359    1201     324     879     247+EL   QY
+EL   QY     406    1075                                                        
CHEXA        971       3     184     182    1360    1359     829     889+EL   QZ
+EL   QZ     248     247                                                        
CHEXA        972       3    1359    1360     328    1201     247     248+EL   R0
+EL   R0     709     406                                                        
CHEXA        973       3     182     180    1361    1360     889     827+EL   R1
+EL   R1     249     248                                                        
CHEXA        974       3    1360    1361     330     328     248     249+EL   R2
+EL   R2     275     709                                                        
CHEXA        975       3     180     178    1362    1361     827     201+EL   R3
+EL   R3     250     249                                                        
CHEXA        976       3    1361    1362     332     330     249     250+EL   R4
+EL   R4     468     275                                                        
CHEXA        977       3     178     176    1363    1362     201     114+EL   R5
+EL   R5     251     250                                                        
CHEXA        978       3    1362    1363    1209     332     250     251+EL   R6
+EL   R6     706     468                                                        
CHEXA        979       3     176     174    1364    1363     114     203+EL   R7
+EL   R7     252     251                                                        
CHEXA        980       3    1363    1364     336    1209     251     252+EL   R8
+EL   R8    1183     706                                                        
CHEXA        981       3     174     172    1365    1364     203     112+EL   R9
+EL   R9     872     252                                                        
CHEXA        982       3    1364    1365    1213     336     252     872+EL   RA
+EL   RA     400    1183                                                        
CHEXA        983       3     172     170    1366    1365     112     822+EL   RB
+EL   RB     871     872                                                        
CHEXA        984       3    1365    1366     340    1213     872     871+EL   RC
+EL   RC     472     400                                                        
CHEXA        985       3     170     168    1367    1366     822     110+EL   RD
+EL   RD     255     871                                                        
CHEXA        986       3    1366    1367     342     340     871     255+EL   RE
+EL   RE     228     472                                                        
CHEXA        987       3     168     166    1368    1367     110     207+EL   RF
+EL   RF     869     255                                                        
CHEXA        988       3    1367    1368     344     342     255     869+EL   RG
+EL   RG    1179     228                                                        
CHEXA        989       3     166     164    1369    1368     207     819+EL   RH
+EL   RH     257     869                                                        
CHEXA        990       3    1368    1369    1221     344     869     257+EL   RI
+EL   RI     851    1179                                                        
CHEXA        991       3     164     162    1370    1369     819     899+EL   RJ
+EL   RJ     867     257                                                        
CHEXA        992       3    1369    1370     348    1221     257     867+EL   RK
+EL   RK     476     851                                                        
CHEXA        993       3     162     160    1371    1370     899     210+EL   RL
+EL   RL     259     867                                                        
CHEXA        994       3    1370    1371    1225     348     867     259+EL   RM
+EL   RM     224     476                                                        
CHEXA        995       3     160     158    1372    1371     210     816+EL   RN
+EL   RN     865     259                                                        
CHEXA        996       3    1371    1372    1227    1225     259     865+EL   RO
+EL   RO    1089     224                                                        
CHEXA        997       3     158     156    1373    1372     816     815+EL   RP
+EL   RP     864     865                                                        
CHEXA        998       3    1372    1373    1229    1227     865     864+EL   RQ
+EL   RQ     855    1089                                                        
CHEXA        999       3     156     154    1374    1373     815     103+EL   RR
+EL   RR     262     864                                                        
CHEXA       1000       3    1373    1374    1231    1229     864     262+EL   RS
+EL   RS     480     855                                                        
CHEXA       1001       3     154     152    1375    1374     103     904+EL   RT
+EL   RT     263     262                                                        
CHEXA       1002       3    1374    1375     358    1231     262     263+EL   RU
+EL   RU     481     480                                                        
CHEXA       1003       3     152     150    1376    1375     904     215+EL   RV
+EL   RV     264     263                                                        
CHEXA       1004       3    1375    1376     360     358     263     264+EL   RW
+EL   RW     693     481                                                        
CHEXA       1005       3     150      19      24    1376     215     957+EL   RX
+EL   RX      17     264                                                        
CHEXA       1006       3    1376      24    1240     360     264      17+EL   RY
+EL   RY     959     693                                                        
CHEXA       1007       3     959     693     738     691     521    1140+EL   RZ
+EL   RZ    1377     522                                                        
CHEXA       1008       3     691     738     436     690     522    1377+EL   S0
+EL   S0     573     524                                                        
CHEXA       1009       3     693     481     484     738    1140     431+EL   S1
+EL   S1    1378    1377                                                        
CHEXA       1010       3     738     484     743     436    1377    1378+EL   S2
+EL   S2     574     573                                                        
CHEXA       1011       3     481     480     485     484     431    1138+EL   S3
+EL   S3    1379    1378                                                        
CHEXA       1012       3     484     485     687     743    1378    1379+EL   S4
+EL   S4     575     574                                                        
CHEXA       1013       3     480     855     735     485    1138     429+EL   S5
+EL   S5    1380    1379                                                        
CHEXA       1014       3     485     735     439     687    1379    1380+EL   S6
+EL   S6     576     575                                                        
CHEXA       1015       3     855    1089     487     735     429    1136+EL   S7
+EL   S7    1381    1380                                                        
CHEXA       1016       3     735     487     685     439    1380    1381+EL   S8
+EL   S8     577     576                                                        
CHEXA       1017       3    1089     224     488     487    1136    1135+EL   S9
+EL   S9    1382    1381                                                        
CHEXA       1018       3     487     488     567     685    1381    1382+EL   SA
+EL   SA     578     577                                                        
CHEXA       1019       3     224     476     489     488    1135     426+EL   SB
+EL   SB    1383    1382                                                        
CHEXA       1020       3     488     489     748     567    1382    1383+EL   SC
+EL   SC     579     578                                                        
CHEXA       1021       3     476     851     731     489     426    1133+EL   SD
+EL   SD    1384    1383                                                        
CHEXA       1022       3     489     731     565     748    1383    1384+EL   SE
+EL   SE     580     579                                                        
CHEXA       1023       3     851    1179     491     731    1133     424+EL   SF
+EL   SF    1385    1384                                                        
CHEXA       1024       3     731     491     750     565    1384    1385+EL   SG
+EL   SG     581     580                                                        
CHEXA       1025       3    1179     228     492     491     424     423+EL   SH
+EL   SH    1386    1385                                                        
CHEXA       1026       3     491     492     445     750    1385    1386+EL   SI
+EL   SI     582     581                                                        
CHEXA       1027       3     228     472     493     492     423    1130+EL   SJ
+EL   SJ    1387    1386                                                        
CHEXA       1028       3     492     493     752     445    1386    1387+EL   SK
+EL   SK     583     582                                                        
CHEXA       1029       3     472     400     494     493    1130     421+EL   SL
+EL   SL    1388    1387                                                        
CHEXA       1030       3     493     494     753     752    1387    1388+EL   SM
+EL   SM     584     583                                                        
CHEXA       1031       3     400    1183     726     494     421     420+EL   SN
+EL   SN    1389    1388                                                        
CHEXA       1032       3     494     726     754     753    1388    1389+EL   SO
+EL   SO     585     584                                                        
CHEXA       1033       3    1183     706     496     726     420    1127+EL   SP
+EL   SP    1390    1389                                                        
CHEXA       1034       3     726     496     755     754    1389    1390+EL   SQ
+EL   SQ     586     585                                                        
CHEXA       1035       3     706     468     497     496    1127    1126+EL   SR
+EL   SR    1391    1390                                                        
CHEXA       1036       3     496     497     675     755    1390    1391+EL   SS
+EL   SS     587     586                                                        
CHEXA       1037       3     468     275     498     497    1126     417+EL   ST
+EL   ST    1392    1391                                                        
CHEXA       1038       3     497     498     557     675    1391    1392+EL   SU
+EL   SU     588     587                                                        
CHEXA       1039       3     275     709     499     498     417     416+EL   SV
+EL   SV    1393    1392                                                        
CHEXA       1040       3     498     499     758     557    1392    1393+EL   SW
+EL   SW     589     588                                                        
CHEXA       1041       3     709     406     721     499     416     415+EL   SX
+EL   SX    1394    1393                                                        
CHEXA       1042       3     499     721     759     758    1393    1394+EL   SY
+EL   SY     590     589                                                        
CHEXA       1043       3     406    1075     720     721     415     414+EL   SZ
+EL   SZ    1395    1394                                                        
CHEXA       1044       3     721     720     760     759    1394    1395+EL   T0
+EL   T0     591     590                                                        
CHEXA       1045       3    1075     463     502     720     414    1121+EL   T1
+EL   T1    1396    1395                                                        
CHEXA       1046       3     720     502     761     760    1395    1396+EL   T2
+EL   T2     592     591                                                        
CHEXA       1047       3     463     838     718     502    1121     412+EL   T3
+EL   T3    1397    1396                                                        
CHEXA       1048       3     502     718     456     761    1396    1397+EL   T4
+EL   T4     593     592                                                        
CHEXA       1049       3     838     837     717     718     412    1119+EL   T5
+EL   T5    1398    1397                                                        
CHEXA       1050       3     718     717     457     456    1397    1398+EL   T6
+EL   T6     594     593                                                        
CHEXA       1051       3     837     268     971     717    1119     510+EL   T7
+EL   T7     513    1398                                                        
CHEXA       1052       3     717     971     764     457    1398     513+EL   T8
+EL   T8     549     594                                                        
CHEXA       1053       3     521    1140    1377     522     973     385+EL   T9
+EL   T9     666     515                                                        
CHEXA       1054       3     522    1377     573     524     515     666+EL   TA
+EL   TA     526     516                                                        
CHEXA       1055       3    1140     431    1378    1377     385    1098+EL   TB
+EL   TB     665     666                                                        
CHEXA       1056       3    1377    1378     574     573     666     665+EL   TC
+EL   TC     618     526                                                        
CHEXA       1057       3     431    1138    1379    1378    1098    1022+EL   TD
+EL   TD     664     665                                                        
CHEXA       1058       3    1378    1379     575     574     665     664+EL   TE
+EL   TE     528     618                                                        
CHEXA       1059       3    1138     429    1380    1379    1022     382+EL   TF
+EL   TF     663     664                                                        
CHEXA       1060       3    1379    1380     576     575     664     663+EL   TG
+EL   TG     616     528                                                        
CHEXA       1061       3     429    1136    1381    1380     382    1020+EL   TH
+EL   TH     662     663                                                        
CHEXA       1062       3    1380    1381     577     576     663     662+EL   TI
+EL   TI     615     616                                                        
CHEXA       1063       3    1136    1135    1382    1381    1020     380+EL   TJ
+EL   TJ     661     662                                                        
CHEXA       1064       3    1381    1382     578     577     662     661+EL   TK
+EL   TK     531     615                                                        
CHEXA       1065       3    1135     426    1383    1382     380     379+EL   TL
+EL   TL     660     661                                                        
CHEXA       1066       3    1382    1383     579     578     661     660+EL   TM
+EL   TM     532     531                                                        
CHEXA       1067       3     426    1133    1384    1383     379    1104+EL   TN
+EL   TN     659     660                                                        
CHEXA       1068       3    1383    1384     580     579     660     659+EL   TO
+EL   TO     533     532                                                        
CHEXA       1069       3    1133     424    1385    1384    1104     377+EL   TP
+EL   TP     658     659                                                        
CHEXA       1070       3    1384    1385     581     580     659     658+EL   TQ
+EL   TQ     534     533                                                        
CHEXA       1071       3     424     423    1386    1385     377    1015+EL   TR
+EL   TR     657     658                                                        
CHEXA       1072       3    1385    1386     582     581     658     657+EL   TS
+EL   TS     610     534                                                        
CHEXA       1073       3     423    1130    1387    1386    1015     633+EL   TT
+EL   TT     656     657                                                        
CHEXA       1074       3    1386    1387     583     582     657     656+EL   TU
+EL   TU     609     610                                                        
CHEXA       1075       3    1130     421    1388    1387     633     374+EL   TV
+EL   TV     655     656                                                        
CHEXA       1076       3    1387    1388     584     583     656     655+EL   TW
+EL   TW     537     609                                                        
CHEXA       1077       3     421     420    1389    1388     374    1109+EL   TX
+EL   TX     654     655                                                        
CHEXA       1078       3    1388    1389     585     584     655     654+EL   TY
+EL   TY     607     537                                                        
CHEXA       1079       3     420    1127    1390    1389    1109    1110+EL   TZ
+EL   TZ     653     654                                                        
CHEXA       1080       3    1389    1390     586     585     654     653+EL   U0
+EL   U0     539     607                                                        
CHEXA       1081       3    1127    1126    1391    1390    1110     371+EL   U1
+EL   U1     652     653                                                        
CHEXA       1082       3    1390    1391     587     586     653     652+EL   U2
+EL   U2     540     539                                                        
CHEXA       1083       3    1126     417    1392    1391     371     370+EL   U3
+EL   U3     651     652                                                        
CHEXA       1084       3    1391    1392     588     587     652     651+EL   U4
+EL   U4     604     540                                                        
CHEXA       1085       3     417     416    1393    1392     370    1113+EL   U5
+EL   U5     650     651                                                        
CHEXA       1086       3    1392    1393     589     588     651     650+EL   U6
+EL   U6     603     604                                                        
CHEXA       1087       3     416     415    1394    1393    1113    1007+EL   U7
+EL   U7     649     650                                                        
CHEXA       1088       3    1393    1394     590     589     650     649+EL   U8
+EL   U8     543     603                                                        
CHEXA       1089       3     415     414    1395    1394    1007    1115+EL   U9
+EL   U9     648     649                                                        
CHEXA       1090       3    1394    1395     591     590     649     648+EL   UA
+EL   UA     544     543                                                        
CHEXA       1091       3     414    1121    1396    1395    1115    1116+EL   UB
+EL   UB     647     648                                                        
CHEXA       1092       3    1395    1396     592     591     648     647+EL   UC
+EL   UC     600     544                                                        
CHEXA       1093       3    1121     412    1397    1396    1116    1004+EL   UD
+EL   UD     646     647                                                        
CHEXA       1094       3    1396    1397     593     592     647     646+EL   UE
+EL   UE     599     600                                                        
CHEXA       1095       3     412    1119    1398    1397    1004    1118+EL   UF
+EL   UF     645     646                                                        
CHEXA       1096       3    1397    1398     594     593     646     645+EL   UG
+EL   UG     547     599                                                        
CHEXA       1097       3    1119     510     513    1398    1118     509+EL   UH
+EL   UH     596     645                                                        
CHEXA       1098       3    1398     513     549     594     645     596+EL   UI
+EL   UI     507     547                                                        
CHEXA       1099       3     957      17     264     215     907     963+EL   UJ
+EL   UJ    1399     954                                                        
CHEXA       1100       3     215     264     263     904     954    1399+EL   UK
+EL   UK    1400     953                                                        
CHEXA       1101       3     904     263     262     103     953    1400+EL   UL
+EL   UL    1401     952                                                        
CHEXA       1102       3     103     262     864     815     952    1401+EL   UM
+EL   UM    1402     951                                                        
CHEXA       1103       3     815     864     865     816     951    1402+EL   UN
+EL   UN    1403     950                                                        
CHEXA       1104       3     816     865     259     210     950    1403+EL   UO
+EL   UO    1404     949                                                        
CHEXA       1105       3     210     259     867     899     949    1404+EL   UP
+EL   UP    1405     948                                                        
CHEXA       1106       3     899     867     257     819     948    1405+EL   UQ
+EL   UQ    1406     947                                                        
CHEXA       1107       3     819     257     869     207     947    1406+EL   UR
+EL   UR    1407     946                                                        
CHEXA       1108       3     207     869     255     110     946    1407+EL   US
+EL   US    1408     945                                                        
CHEXA       1109       3     110     255     871     822     945    1408+EL   UT
+EL   UT    1409     944                                                        
CHEXA       1110       3     822     871     872     112     944    1409+EL   UU
+EL   UU    1410     943                                                        
CHEXA       1111       3     112     872     252     203     943    1410+EL   UV
+EL   UV    1411     942                                                        
CHEXA       1112       3     203     252     251     114     942    1411+EL   UW
+EL   UW    1412     941                                                        
CHEXA       1113       3     114     251     250     201     941    1412+EL   UX
+EL   UX    1413     940                                                        
CHEXA       1114       3     201     250     249     827     940    1413+EL   UY
+EL   UY    1414     939                                                        
CHEXA       1115       3     827     249     248     889     939    1414+EL   UZ
+EL   UZ    1415     938                                                        
CHEXA       1116       3     889     248     247     829     938    1415+EL   V0
+EL   V0    1416     937                                                        
CHEXA       1117       3     829     247     879     887     937    1416+EL   V1
+EL   V1    1417     936                                                        
CHEXA       1118       3     887     879     245     831     936    1417+EL   V2
+EL   V2    1418     935                                                        
CHEXA       1119       3     831     245     244     885     935    1418+EL   V3
+EL   V3    1419     934                                                        
CHEXA       1120       3     885     244     882     884     934    1419+EL   V4
+EL   V4    1420     933                                                        
CHEXA       1121       3     884     882     835     966     933    1420+EL   V5
+EL   V5     972     932                                                        
CHEXA       1122       3      17     959     693     264     963     691+EL   V6
+EL   V6     738    1399                                                        
CHEXA       1123       3     264     693     481     263    1399     738+EL   V7
+EL   V7     484    1400                                                        
CHEXA       1124       3     263     481     480     262    1400     484+EL   V8
+EL   V8     485    1401                                                        
CHEXA       1125       3     262     480     855     864    1401     485+EL   V9
+EL   V9     735    1402                                                        
CHEXA       1126       3     864     855    1089     865    1402     735+EL   VA
+EL   VA     487    1403                                                        
CHEXA       1127       3     865    1089     224     259    1403     487+EL   VB
+EL   VB     488    1404                                                        
CHEXA       1128       3     259     224     476     867    1404     488+EL   VC
+EL   VC     489    1405                                                        
CHEXA       1129       3     867     476     851     257    1405     489+EL   VD
+EL   VD     731    1406                                                        
CHEXA       1130       3     257     851    1179     869    1406     731+EL   VE
+EL   VE     491    1407                                                        
CHEXA       1131       3     869    1179     228     255    1407     491+EL   VF
+EL   VF     492    1408                                                        
CHEXA       1132       3     255     228     472     871    1408     492+EL   VG
+EL   VG     493    1409                                                        
CHEXA       1133       3     871     472     400     872    1409     493+EL   VH
+EL   VH     494    1410                                                        
CHEXA       1134       3     872     400    1183     252    1410     494+EL   VI
+EL   VI     726    1411                                                        
CHEXA       1135       3     252    1183     706     251    1411     726+EL   VJ
+EL   VJ     496    1412                                                        
CHEXA       1136       3     251     706     468     250    1412     496+EL   VK
+EL   VK     497    1413                                                        
CHEXA       1137       3     250     468     275     249    1413     497+EL   VL
+EL   VL     498    1414                                                        
CHEXA       1138       3     249     275     709     248    1414     498+EL   VM
+EL   VM     499    1415                                                        
CHEXA       1139       3     248     709     406     247    1415     499+EL   VN
+EL   VN     721    1416                                                        
CHEXA       1140       3     247     406    1075     879    1416     721+EL   VO
+EL   VO     720    1417                                                        
CHEXA       1141       3     879    1075     463     245    1417     720+EL   VP
+EL   VP     502    1418                                                        
CHEXA       1142       3     245     463     838     244    1418     502+EL   VQ
+EL   VQ     718    1419                                                        
CHEXA       1143       3     244     838     837     882    1419     718+EL   VR
+EL   VR     717    1420                                                        
CHEXA       1144       3     882     837     268     835    1420     717+EL   VS
+EL   VS     971     972                                                        
CHEXA       1145       3     907     963    1399     954     908     962+EL   VT
+EL   VT     789     788                                                        
CHEXA       1146       3     954    1399    1400     953     788     789+EL   VU
+EL   VU     790     787                                                        
CHEXA       1147       3     953    1400    1401     952     787     790+EL   VV
+EL   VV     791     786                                                        
CHEXA       1148       3     952    1401    1402     951     786     791+EL   VW
+EL   VW     792     785                                                        
CHEXA       1149       3     951    1402    1403     950     785     792+EL   VX
+EL   VX     793     784                                                        
CHEXA       1150       3     950    1403    1404     949     784     793+EL   VY
+EL   VY     794     783                                                        
CHEXA       1151       3     949    1404    1405     948     783     794+EL   VZ
+EL   VZ     795     782                                                        
CHEXA       1152       3     948    1405    1406     947     782     795+EL   W0
+EL   W0     796     781                                                        
CHEXA       1153       3     947    1406    1407     946     781     796+EL   W1
+EL   W1     797     780                                                        
CHEXA       1154       3     946    1407    1408     945     780     797+EL   W2
+EL   W2     798     918                                                        
CHEXA       1155       3     945    1408    1409     944     918     798+EL   W3
+EL   W3     799     919                                                        
CHEXA       1156       3     944    1409    1410     943     919     799+EL   W4
+EL   W4     800     777                                                        
CHEXA       1157       3     943    1410    1411     942     777     800+EL   W5
+EL   W5     801     921                                                        
CHEXA       1158       3     942    1411    1412     941     921     801+EL   W6
+EL   W6     802     775                                                        
CHEXA       1159       3     941    1412    1413     940     775     802+EL   W7
+EL   W7     803     923                                                        
CHEXA       1160       3     940    1413    1414     939     923     803+EL   W8
+EL   W8     804     924                                                        
CHEXA       1161       3     939    1414    1415     938     924     804+EL   W9
+EL   W9     805     772                                                        
CHEXA       1162       3     938    1415    1416     937     772     805+EL   WA
+EL   WA     806     771                                                        
CHEXA       1163       3     937    1416    1417     936     771     806+EL   WB
+EL   WB     807     927                                                        
CHEXA       1164       3     936    1417    1418     935     927     807+EL   WC
+EL   WC     808     928                                                        
CHEXA       1165       3     935    1418    1419     934     928     808+EL   WD
+EL   WD     809     768                                                        
CHEXA       1166       3     934    1419    1420     933     768     809+EL   WE
+EL   WE     810     930                                                        
CHEXA       1167       3     933    1420     972     932     930     810+EL   WF
+EL   WF     765     968                                                        
CHEXA       1168       3     963     691     738    1399     962     690+EL   WG
+EL   WG     436     789                                                        
CHEXA       1169       3    1399     738     484    1400     789     436+EL   WH
+EL   WH     743     790                                                        
CHEXA       1170       3    1400     484     485    1401     790     743+EL   WI
+EL   WI     687     791                                                        
CHEXA       1171       3    1401     485     735    1402     791     687+EL   WJ
+EL   WJ     439     792                                                        
CHEXA       1172       3    1402     735     487    1403     792     439+EL   WK
+EL   WK     685     793                                                        
CHEXA       1173       3    1403     487     488    1404     793     685+EL   WL
+EL   WL     567     794                                                        
CHEXA       1174       3    1404     488     489    1405     794     567+EL   WM
+EL   WM     748     795                                                        
CHEXA       1175       3    1405     489     731    1406     795     748+EL   WN
+EL   WN     565     796                                                        
CHEXA       1176       3    1406     731     491    1407     796     565+EL   WO
+EL   WO     750     797                                                        
CHEXA       1177       3    1407     491     492    1408     797     750+EL   WP
+EL   WP     445     798                                                        
CHEXA       1178       3    1408     492     493    1409     798     445+EL   WQ
+EL   WQ     752     799                                                        
CHEXA       1179       3    1409     493     494    1410     799     752+EL   WR
+EL   WR     753     800                                                        
CHEXA       1180       3    1410     494     726    1411     800     753+EL   WS
+EL   WS     754     801                                                        
CHEXA       1181       3    1411     726     496    1412     801     754+EL   WT
+EL   WT     755     802                                                        
CHEXA       1182       3    1412     496     497    1413     802     755+EL   WU
+EL   WU     675     803                                                        
CHEXA       1183       3    1413     497     498    1414     803     675+EL   WV
+EL   WV     557     804                                                        
CHEXA       1184       3    1414     498     499    1415     804     557+EL   WW
+EL   WW     758     805                                                        
CHEXA       1185       3    1415     499     721    1416     805     758+EL   WX
+EL   WX     759     806                                                        
CHEXA       1186       3    1416     721     720    1417     806     759+EL   WY
+EL   WY     760     807                                                        
CHEXA       1187       3    1417     720     502    1418     807     760+EL   WZ
+EL   WZ     761     808                                                        
CHEXA       1188       3    1418     502     718    1419     808     761+EL   X0
+EL   X0     456     809                                                        
CHEXA       1189       3    1419     718     717    1420     809     456+EL   X1
+EL   X1     457     810                                                        
CHEXA       1190       3    1420     717     971     972     810     457+EL   X2
+EL   X2     764     765                                                        
CHEXA       1191       3     268     837     318    1251     510    1119+EL   X3
+EL   X3    1421    1260                                                        
CHEXA       1192       3    1251     318    1194    1250    1260    1421+EL   X4
+EL   X4    1422    1259                                                        
CHEXA       1193       3    1250    1194      28    1249    1259    1422+EL   X5
+EL   X5    1332    1285                                                        
CHEXA       1194       3     837     838     320     318    1119     412+EL   X6
+EL   X6    1423    1421                                                        
CHEXA       1195       3     318     320     319    1194    1421    1423+EL   X7
+EL   X7    1424    1422                                                        
CHEXA       1196       3    1194     319      29      28    1422    1424+EL   X8
+EL   X8    1331    1332                                                        
CHEXA       1197       3     838     463     322     320     412    1121+EL   X9
+EL   X9    1425    1423                                                        
CHEXA       1198       3     320     322     321     319    1423    1425+EL   XA
+EL   XA    1426    1424                                                        
CHEXA       1199       3     319     321     314      29    1424    1426+EL   XB
+EL   XB    1330    1331                                                        
CHEXA       1200       3     463    1075     324     322    1121     414+EL   XC
+EL   XC    1427    1425                                                        
CHEXA       1201       3     322     324    1200     321    1425    1427+EL   XD
+EL   XD    1428    1426                                                        
CHEXA       1202       3     321    1200     313     314    1426    1428+EL   XE
+EL   XE    1329    1330                                                        
CHEXA       1203       3    1075     406    1201     324     414     415+EL   XF
+EL   XF    1429    1427                                                        
CHEXA       1204       3     324    1201     325    1200    1427    1429+EL   XG
+EL   XG    1430    1428                                                        
CHEXA       1205       3    1200     325    1149     313    1428    1430+EL   XH
+EL   XH    1328    1329                                                        
CHEXA       1206       3     406     709     328    1201     415     416+EL   XI
+EL   XI    1431    1429                                                        
CHEXA       1207       3    1201     328    1204     325    1429    1431+EL   XJ
+EL   XJ    1432    1430                                                        
CHEXA       1208       3     325    1204    1278    1149    1430    1432+EL   XK
+EL   XK    1327    1328                                                        
CHEXA       1209       3     709     275     330     328     416     417+EL   XL
+EL   XL    1433    1431                                                        
CHEXA       1210       3     328     330     329    1204    1431    1433+EL   XM
+EL   XM    1434    1432                                                        
CHEXA       1211       3    1204     329      34    1278    1432    1434+EL   XN
+EL   XN    1326    1327                                                        
CHEXA       1212       3     275     468     332     330     417    1126+EL   XO
+EL   XO    1435    1433                                                        
CHEXA       1213       3     330     332    1208     329    1433    1435+EL   XP
+EL   XP    1436    1434                                                        
CHEXA       1214       3     329    1208      35      34    1434    1436+EL   XQ
+EL   XQ    1325    1326                                                        
CHEXA       1215       3     468     706    1209     332    1126    1127+EL   XR
+EL   XR    1437    1435                                                        
CHEXA       1216       3     332    1209     333    1208    1435    1437+EL   XS
+EL   XS    1438    1436                                                        
CHEXA       1217       3    1208     333      36      35    1436    1438+EL   XT
+EL   XT    1324    1325                                                        
CHEXA       1218       3     706    1183     336    1209    1127     420+EL   XU
+EL   XU    1439    1437                                                        
CHEXA       1219       3    1209     336    1212     333    1437    1439+EL   XV
+EL   XV    1440    1438                                                        
CHEXA       1220       3     333    1212     307      36    1438    1440+EL   XW
+EL   XW    1323    1324                                                        
CHEXA       1221       3    1183     400    1213     336     420     421+EL   XX
+EL   XX    1441    1439                                                        
CHEXA       1222       3     336    1213    1214    1212    1439    1441+EL   XY
+EL   XY    1442    1440                                                        
CHEXA       1223       3    1212    1214     306     307    1440    1442+EL   XZ
+EL   XZ    1322    1323                                                        
CHEXA       1224       3     400     472     340    1213     421    1130+EL   Y0
+EL   Y0    1443    1441                                                        
CHEXA       1225       3    1213     340    1216    1214    1441    1443+EL   Y1
+EL   Y1    1444    1442                                                        
CHEXA       1226       3    1214    1216    1272     306    1442    1444+EL   Y2
+EL   Y2    1321    1322                                                        
CHEXA       1227       3     472     228     342     340    1130     423+EL   Y3
+EL   Y3    1445    1443                                                        
CHEXA       1228       3     340     342    1218    1216    1443    1445+EL   Y4
+EL   Y4    1446    1444                                                        
CHEXA       1229       3    1216    1218     304    1272    1444    1446+EL   Y5
+EL   Y5    1320    1321                                                        
CHEXA       1230       3     228    1179     344     342     423     424+EL   Y6
+EL   Y6    1447    1445                                                        
CHEXA       1231       3     342     344     343    1218    1445    1447+EL   Y7
+EL   Y7    1448    1446                                                        
CHEXA       1232       3    1218     343    1158     304    1446    1448+EL   Y8
+EL   Y8    1319    1320                                                        
CHEXA       1233       3    1179     851    1221     344     424    1133+EL   Y9
+EL   Y9    1449    1447                                                        
CHEXA       1234       3     344    1221     345     343    1447    1449+EL   YA
+EL   YA    1450    1448                                                        
CHEXA       1235       3     343     345      42    1158    1448    1450+EL   YB
+EL   YB    1318    1319                                                        
CHEXA       1236       3     851     476     348    1221    1133     426+EL   YC
+EL   YC    1451    1449                                                        
CHEXA       1237       3    1221     348    1224     345    1449    1451+EL   YD
+EL   YD    1452    1450                                                        
CHEXA       1238       3     345    1224     301      42    1450    1452+EL   YE
+EL   YE    1317    1318                                                        
CHEXA       1239       3     476     224    1225     348     426    1135+EL   YF
+EL   YF    1453    1451                                                        
CHEXA       1240       3     348    1225    1226    1224    1451    1453+EL   YG
+EL   YG    1454    1452                                                        
CHEXA       1241       3    1224    1226    1161     301    1452    1454+EL   YH
+EL   YH    1316    1317                                                        
CHEXA       1242       3     224    1089    1227    1225    1135    1136+EL   YI
+EL   YI    1455    1453                                                        
CHEXA       1243       3    1225    1227    1228    1226    1453    1455+EL   YJ
+EL   YJ    1456    1454                                                        
CHEXA       1244       3    1226    1228      45    1161    1454    1456+EL   YK
+EL   YK    1315    1316                                                        
CHEXA       1245       3    1089     855    1229    1227    1136     429+EL   YL
+EL   YL    1457    1455                                                        
CHEXA       1246       3    1227    1229     353    1228    1455    1457+EL   YM
+EL   YM    1458    1456                                                        
CHEXA       1247       3    1228     353     298      45    1456    1458+EL   YN
+EL   YN    1314    1315                                                        
CHEXA       1248       3     855     480    1231    1229     429    1138+EL   YO
+EL   YO    1459    1457                                                        
CHEXA       1249       3    1229    1231    1232     353    1457    1459+EL   YP
+EL   YP    1460    1458                                                        
CHEXA       1250       3     353    1232    1264     298    1458    1460+EL   YQ
+EL   YQ    1313    1314                                                        
CHEXA       1251       3     480     481     358    1231    1138     431+EL   YR
+EL   YR    1461    1459                                                        
CHEXA       1252       3    1231     358    1234    1232    1459    1461+EL   YS
+EL   YS    1462    1460                                                        
CHEXA       1253       3    1232    1234    1165    1264    1460    1462+EL   YT
+EL   YT    1312    1313                                                        
CHEXA       1254       3     481     693     360     358     431    1140+EL   YU
+EL   YU    1463    1461                                                        
CHEXA       1255       3     358     360    1236    1234    1461    1463+EL   YV
+EL   YV    1464    1462                                                        
CHEXA       1256       3    1234    1236      49    1165    1462    1464+EL   YW
+EL   YW    1311    1312                                                        
CHEXA       1257       3     693     959    1240     360    1140     521+EL   YX
+EL   YX    1247    1463                                                        
CHEXA       1258       3     360    1240      14    1236    1463    1247+EL   YY
+EL   YY    1248    1464                                                        
CHEXA       1259       3    1236      14    1242      49    1464    1248+EL   YZ
+EL   YZ    1310    1311                                                        
CHEXA       1260       3     510    1119    1421    1260     509    1118+EL   Z0
+EL   Z0    1067    1255                                                        
CHEXA       1261       3    1260    1421    1422    1259    1255    1067+EL   Z1
+EL   Z1    1068    1256                                                        
CHEXA       1262       3    1259    1422    1332    1285    1256    1068+EL   Z2
+EL   Z2     998    1286                                                        
CHEXA       1263       3    1119     412    1423    1421    1118    1004+EL   Z3
+EL   Z3    1065    1067                                                        
CHEXA       1264       3    1421    1423    1424    1422    1067    1065+EL   Z4
+EL   Z4    1066    1068                                                        
CHEXA       1265       3    1422    1424    1331    1332    1068    1066+EL   Z5
+EL   Z5    1288     998                                                        
CHEXA       1266       3     412    1121    1425    1423    1004    1116+EL   Z6
+EL   Z6    1063    1065                                                        
CHEXA       1267       3    1423    1425    1426    1424    1065    1063+EL   Z7
+EL   Z7    1064    1066                                                        
CHEXA       1268       3    1424    1426    1330    1331    1066    1064+EL   Z8
+EL   Z8     996    1288                                                        
CHEXA       1269       3    1121     414    1427    1425    1116    1115+EL   Z9
+EL   Z9    1061    1063                                                        
CHEXA       1270       3    1425    1427    1428    1426    1063    1061+EL   ZA
+EL   ZA    1062    1064                                                        
CHEXA       1271       3    1426    1428    1329    1330    1064    1062+EL   ZB
+EL   ZB    1290     996                                                        
CHEXA       1272       3     414     415    1429    1427    1115    1007+EL   ZC
+EL   ZC    1059    1061                                                        
CHEXA       1273       3    1427    1429    1430    1428    1061    1059+EL   ZD
+EL   ZD    1060    1062                                                        
CHEXA       1274       3    1428    1430    1328    1329    1062    1060+EL   ZE
+EL   ZE    1291    1290                                                        
CHEXA       1275       3     415     416    1431    1429    1007    1113+EL   ZF
+EL   ZF    1057    1059                                                        
CHEXA       1276       3    1429    1431    1432    1430    1059    1057+EL   ZG
+EL   ZG    1058    1060                                                        
CHEXA       1277       3    1430    1432    1327    1328    1060    1058+EL   ZH
+EL   ZH     993    1291                                                        
CHEXA       1278       3     416     417    1433    1431    1113     370+EL   ZI
+EL   ZI    1055    1057                                                        
CHEXA       1279       3    1431    1433    1434    1432    1057    1055+EL   ZJ
+EL   ZJ    1056    1058                                                        
CHEXA       1280       3    1432    1434    1326    1327    1058    1056+EL   ZK
+EL   ZK     992     993                                                        
CHEXA       1281       3     417    1126    1435    1433     370     371+EL   ZL
+EL   ZL    1053    1055                                                        
CHEXA       1282       3    1433    1435    1436    1434    1055    1053+EL   ZM
+EL   ZM    1054    1056                                                        
CHEXA       1283       3    1434    1436    1325    1326    1056    1054+EL   ZN
+EL   ZN    1294     992                                                        
CHEXA       1284       3    1126    1127    1437    1435     371    1110+EL   ZO
+EL   ZO    1051    1053                                                        
CHEXA       1285       3    1435    1437    1438    1436    1053    1051+EL   ZP
+EL   ZP    1052    1054                                                        
CHEXA       1286       3    1436    1438    1324    1325    1054    1052+EL   ZQ
+EL   ZQ     990    1294                                                        
CHEXA       1287       3    1127     420    1439    1437    1110    1109+EL   ZR
+EL   ZR    1049    1051                                                        
CHEXA       1288       3    1437    1439    1440    1438    1051    1049+EL   ZS
+EL   ZS    1050    1052                                                        
CHEXA       1289       3    1438    1440    1323    1324    1052    1050+EL   ZT
+EL   ZT    1296     990                                                        
CHEXA       1290       3     420     421    1441    1439    1109     374+EL   ZU
+EL   ZU    1047    1049                                                        
CHEXA       1291       3    1439    1441    1442    1440    1049    1047+EL   ZV
+EL   ZV    1048    1050                                                        
CHEXA       1292       3    1440    1442    1322    1323    1050    1048+EL   ZW
+EL   ZW     988    1296                                                        
CHEXA       1293       3     421    1130    1443    1441     374     633+EL   ZX
+EL   ZX    1045    1047                                                        
CHEXA       1294       3    1441    1443    1444    1442    1047    1045+EL   ZY
+EL   ZY    1046    1048                                                        
CHEXA       1295       3    1442    1444    1321    1322    1048    1046+EL   ZZ
+EL   ZZ    1298     988                                                        
CHEXA       1296       3    1130     423    1445    1443     633    1015+EL  100
+EL  100    1043    1045                                                        
CHEXA       1297       3    1443    1445    1446    1444    1045    1043+EL  101
+EL  101    1044    1046                                                        
CHEXA       1298       3    1444    1446    1320    1321    1046    1044+EL  102
+EL  102     986    1298                                                        
CHEXA       1299       3     423     424    1447    1445    1015     377+EL  103
+EL  103    1041    1043                                                        
CHEXA       1300       3    1445    1447    1448    1446    1043    1041+EL  104
+EL  104    1042    1044                                                        
CHEXA       1301       3    1446    1448    1319    1320    1044    1042+EL  105
+EL  105     985     986                                                        
CHEXA       1302       3     424    1133    1449    1447     377    1104+EL  106
+EL  106    1039    1041                                                        
CHEXA       1303       3    1447    1449    1450    1448    1041    1039+EL  107
+EL  107    1040    1042                                                        
CHEXA       1304       3    1448    1450    1318    1319    1042    1040+EL  108
+EL  108    1301     985                                                        
CHEXA       1305       3    1133     426    1451    1449    1104     379+EL  109
+EL  109    1037    1039                                                        
CHEXA       1306       3    1449    1451    1452    1450    1039    1037+EL  10A
+EL  10A    1038    1040                                                        
CHEXA       1307       3    1450    1452    1317    1318    1040    1038+EL  10B
+EL  10B    1302    1301                                                        
CHEXA       1308       3     426    1135    1453    1451     379     380+EL  10C
+EL  10C    1035    1037                                                        
CHEXA       1309       3    1451    1453    1454    1452    1037    1035+EL  10D
+EL  10D    1036    1038                                                        
CHEXA       1310       3    1452    1454    1316    1317    1038    1036+EL  10E
+EL  10E     982    1302                                                        
CHEXA       1311       3    1135    1136    1455    1453     380    1020+EL  10F
+EL  10F    1033    1035                                                        
CHEXA       1312       3    1453    1455    1456    1454    1035    1033+EL  10G
+EL  10G    1034    1036                                                        
CHEXA       1313       3    1454    1456    1315    1316    1036    1034+EL  10H
+EL  10H    1304     982                                                        
CHEXA       1314       3    1136     429    1457    1455    1020     382+EL  10I
+EL  10I    1031    1033                                                        
CHEXA       1315       3    1455    1457    1458    1456    1033    1031+EL  10J
+EL  10J    1032    1034                                                        
CHEXA       1316       3    1456    1458    1314    1315    1034    1032+EL  10K
+EL  10K     980    1304                                                        
CHEXA       1317       3     429    1138    1459    1457     382    1022+EL  10L
+EL  10L    1029    1031                                                        
CHEXA       1318       3    1457    1459    1460    1458    1031    1029+EL  10M
+EL  10M    1030    1032                                                        
CHEXA       1319       3    1458    1460    1313    1314    1032    1030+EL  10N
+EL  10N     979     980                                                        
CHEXA       1320       3    1138     431    1461    1459    1022    1098+EL  10O
+EL  10O    1027    1029                                                        
CHEXA       1321       3    1459    1461    1462    1460    1029    1027+EL  10P
+EL  10P    1028    1030                                                        
CHEXA       1322       3    1460    1462    1312    1313    1030    1028+EL  10Q
+EL  10Q    1307     979                                                        
CHEXA       1323       3     431    1140    1463    1461    1098     385+EL  10R
+EL  10R    1025    1027                                                        
CHEXA       1324       3    1461    1463    1464    1462    1027    1025+EL  10S
+EL  10S    1026    1028                                                        
CHEXA       1325       3    1462    1464    1311    1312    1028    1026+EL  10T
+EL  10T    1308    1307                                                        
CHEXA       1326       3    1140     521    1247    1463     385     973+EL  10U
+EL  10U    1246    1025                                                        
CHEXA       1327       3    1463    1247    1248    1464    1025    1246+EL  10V
+EL  10V    1245    1026                                                        
CHEXA       1328       3    1464    1248    1310    1311    1026    1245+EL  10W
+EL  10W    1244    1308                                                        
ENDDATA
