ID c:\Users\Dima\Lame3d2\Mpl,FEMAP
SOL SESTATICS
TIME 10000
CEND
  ECHO = NONE
  DISPLACEMENT(PLOT) = ALL
  SPCFORCE(PLOT) = ALL
  OLOAD(PLOT) = ALL
  FORCE(PLOT,CORNER) = ALL
  STRESS(PLOT,CORNER) = ALL
  LOAD = 1
BEGIN BULK
$ ***************************************************************************
$   Written by : FEMAP
$   Version    : 7.00
$   Translator : MSC/NASTRAN
$   From Model : c:\Users\Dima\Lame3d2\Mpls_all\Exe\Models_nas\Ono_box\Solid\ono_box.MOD
$   Date       : Fri Dec 05 00:16:25 2008
$ ***************************************************************************
$
PARAM,POST,-1
PARAM,OGEOM,NO
PARAM,AUTOSPC,YES
PARAM,GRDPNT,0
CORD2C         1       0      0.      0.      0.      0.      0.      1.+FEMAPC1
+FEMAPC1      1.      0.      1.
CORD2S         2       0      0.      0.      0.      0.      0.      1.+FEMAPC2
+FEMAPC2      1.      0.      1.
$ FEMAP Load Set 1 : Srcplane Vn -1.0 0.0
PLOAD4         1    6115    111.                            1408    1319
PLOAD4         1    6116    111.                            1314     951
PLOAD4         1    6119    111.                            1097    1319
PLOAD4         1    6177    111.                             947    1006
PLOAD4         1    6178    111.                            1408     951
PLOAD4         1    6180    111.                            1407    1163
PLOAD4         1    6183    111.                            1398    1475
PLOAD4         1    6188    111.                             706     705
PLOAD4         1    6228    111.                            1408     951
PLOAD4         1    6264    111.                            1396    1650
PLOAD4         1    6268    111.                            1565    1650
PLOAD4         1    6270    111.                            1565    1649
PLOAD4         1    6582    111.                            1406    1476
PLOAD4         1    6586    111.                            1410    1415
PLOAD4         1    6589    111.                            1410    1650
PLOAD4         1    6591    111.                            1097    1163
PLOAD4         1    6598    111.                            1100    1163
PLOAD4         1    6599    111.                            1406    1476
PLOAD4         1    6629    111.                            1406    1874
PLOAD4         1    6832    111.                            1314     951
PLOAD4         1    6837    111.                            1406    1874
PLOAD4         1    6843    111.                            1406    1163
$ FEMAP Load Set 2 : Endwall Absorb 1.0 0.0
PLOAD4         2    2432    222.                             482    1693
PLOAD4         2    2498    222.                             495    1346
PLOAD4         2    2626    222.                             496    1749
PLOAD4         2    2668    222.                             481    1827
PLOAD4         2    3378    222.                             675     741
PLOAD4         2    3513    222.                             478    1693
PLOAD4         2    3628    222.                             491    1790
PLOAD4         2    3637    222.                             479    1693
PLOAD4         2    3640    222.                             485    1693
PLOAD4         2    3854    222.                             499    1190
PLOAD4         2    3892    222.                             494     739
PLOAD4         2    3916    222.                             674     739
PLOAD4         2    3917    222.                             248     450
PLOAD4         2    3950    222.                             674     739
PLOAD4         2    3994    222.                             481    1828
PLOAD4         2    4085    222.                             674     739
PLOAD4         2    4139    222.                             468     246
PLOAD4         2    4141    222.                             484     446
PLOAD4         2    4143    222.                             484     445
PLOAD4         2    4214    222.                             493    1714
$ ... 76 like lines cut
$ FEMAP Property 1 : Ono box
PSHELL         1       1      0.       1               1              0.
$ FEMAP Property 2 : Inclusion
PSHELL         2       1      0.       1               1              0.
$ FEMAP Property 3 : Untitled
PSOLID         3       1       0        
$ FEMAP Property 4 : Untitled
PSOLID         4       1       0        
$ FEMAP Material 1 : Untitled
MAT1           1                              0.      0.      0.        
GRID           1       0      0.      0.     2.5       0        
GRID           4       0      0.    0.25     2.5       0        
GRID           6       0      0. 0.41667     2.5       0        
GRID           8       0      0.     0.5 2.41379       0        
GRID          10       0      0.     0.5 2.24138       0        
GRID          11       0      0.     0.5 2.15517       0        
GRID          17       0      0.     0.5 1.63793       0        
GRID          18       0      0.     0.5 1.55172       0        
GRID          19       0      0.     0.5 1.46552       0        
GRID          20       0      0.     0.5 1.37931       0        
GRID          21       0      0.     0.5  1.2931       0        
GRID          22       0      0.     0.5  1.2069       0        
GRID          24       0      0.     0.5 1.03448       0        
GRID          25       0      0.     0.5 0.94828       0        
GRID          26       0      0.     0.5 0.86207       0        
GRID          29       0      0.     0.5 0.60345       0        
GRID          31       0      0.     0.5 0.43103       0        
GRID          33       0      0.     0.5 0.25862       0        
GRID          34       0      0.     0.5 0.17241       0        
GRID          35       0      0.     0.50.086207       0        
$ ... 1204 like lines cut
CTETRA      2397       3    1651    1652    1653    1654                        
CTETRA      2398       3    1652     134    1651    1655                        
CTETRA      2399       3    1652    1654    1651     139                        
CTETRA      2400       3    1652     779    1653    1656                        
CTETRA      2401       3    1652    1655    1653     776                        
CTETRA      2402       3    1652    1653     779     776                        
CTETRA      2403       3    1657    1658    1659      87                        
CTETRA      2404       3      92    1660    1661      87                        
CTETRA      2405       3     157     161    1662     156                        
CTETRA      2406       3    1657    1663    1664    1665                        
CTETRA      2407       3    1657    1664    1666    1660                        
CTETRA      2408       3    1664    1666    1667    1657                        
CTETRA      2409       3    1668    1664    1666    1667                        
CTETRA      2410       3    1651    1654     138     139                        
CTETRA      2411       3     391    1669     392    1670                        
CTETRA      2412       3    1652    1655    1651    1653                        
CTETRA      2413       3    1651    1671     129     128                        
CTETRA      2414       3     128    1651    1672     133                        
CTETRA      2415       3    1651    1671    1672    1673                        
CTETRA      2416       3    1651    1655    1671    1653                        
$ ... 4476 like lines cut
ENDDATA
