ID C:\Users\Dima\Lame3d2\Mpl,FEMAP
SOL SESTATICS
TIME 10000
CEND
  ECHO = NONE
  DISPLACEMENT(PLOT) = ALL
  SPCFORCE(PLOT) = ALL
  OLOAD(PLOT) = ALL
  FORCE(PLOT,CORNER) = ALL
  STRESS(PLOT,CORNER) = ALL
  LOAD = 200
BEGIN BULK
$ ***************************************************************************
$   Written by : FEMAP
$   Version    : 7.00
$   Translator : MSC/NASTRAN
$   From Model : C:\Users\Dima\Lame3d2\Mpls_all\Exe\Cylinder\Solid\cylinder.MOD
$   Date       : Thu Oct 19 02:04:36 2006
$ ***************************************************************************
$
PARAM,POST,-1
PARAM,OGEOM,NO
PARAM,AUTOSPC,YES
PARAM,GRDPNT,0
CORD2C         1       0      0.      0.      0.      0.      0.      1.+FEMAPC1
+FEMAPC1      1.      0.      1.
CORD2S         2       0      0.      0.      0.      0.      0.      1.+FEMAPC2
+FEMAPC2      1.      0.      1.
$ FEMAP Load Set 100 : Surface MARKER1
PLOAD4       100     170    111.                             146      88
PLOAD4       100     172    111.                             145      89
PLOAD4       100     177    111.                              74      88
PLOAD4       100     180    111.                             149      87
PLOAD4       100     194    111.                              89      91
PLOAD4       100     196    111.                              78      92
PLOAD4       100     201    111.                              87      91
PLOAD4       100     204    111.                             229      90
PLOAD4       100     218    111.                              92      82
PLOAD4       100     220    111.                              79     176
PLOAD4       100     225    111.                              90      82
PLOAD4       100     228    111.                              85     174
PLOAD4       100     174    111.                             152      78
PLOAD4       100     176    111.                             226     236
PLOAD4       100     182    111.                             150     238
PLOAD4       100     183    111.                             150     229
PLOAD4       100     198    111.                             236      79
PLOAD4       100     200    111.                             238     235
PLOAD4       100     206    111.                             240     237
PLOAD4       100     207    111.                             240      85
$ ... 4 like lines cut
$ FEMAP Load Set 200 : Surface MARKER2
PLOAD4       200     173    222.                             137     121
PLOAD4       200     175    222.                              98     120
PLOAD4       200     181    222.                             141     117
PLOAD4       200     184    222.                             196     115
PLOAD4       200     187    222.                             138     120
PLOAD4       200     188    222.                             141     119
PLOAD4       200     191    222.                             142     116
PLOAD4       200     192    222.                             144     116
PLOAD4       200     197    222.                             102     128
PLOAD4       200     199    222.                             119     127
PLOAD4       200     205    222.                             118     124
PLOAD4       200     208    222.                             114     122
PLOAD4       200     211    222.                             121     127
PLOAD4       200     212    222.                             118     126
PLOAD4       200     215    222.                             117     123
PLOAD4       200     216    222.                             115     123
PLOAD4       200     221    222.                             186     172
PLOAD4       200     223    222.                             126     106
PLOAD4       200     229    222.                             125     168
PLOAD4       200     232    222.                             113     111
$ ... 28 like lines cut
$ FEMAP Property 1 : Untitled
PSHELL         1       1      0.       1               1              0.
$ FEMAP Property 2 : Cylinder
PSOLID         2       1       0        
$ FEMAP Material 1 : Untitled
MAT1           1                              0.      0.      0.        
GRID          74       0-0.70711-0.70711      1.       0        
GRID          75       0      0.     -1.      1.       0        
GRID          78       0      1.      0. 0.33333       0        
GRID          79       0      1.      0.-0.33333       0        
GRID          82       0      0.     -1.     -1.       0        
GRID          85       0     -1.      0.-0.33333       0        
GRID          87       0-0.70711-0.70711 0.33333       0        
GRID          88       0      0.     -1. 0.33333       0        
GRID          89       0 0.70711-0.70711 0.33333       0        
GRID          90       0-0.70711-0.70711-0.33333       0        
GRID          91       0      0.     -1.-0.33333       0        
GRID          92       0 0.70711-0.70711-0.33333       0        
GRID          98       0 0.76537 1.84776      1.       0        
GRID          99       0 1.41421 1.41421      1.       0        
GRID         102       0      2.      0. 0.33333       0        
GRID         106       0 1.41421 1.41421     -1.       0        
GRID         108       0      0.      2.     -1.       0        
GRID         110       0-1.41421 1.41421     -1.       0        
GRID         111       0-1.84776 0.76537     -1.       0        
GRID         112       0     -2.      0.     -1.       0        
$ ... 92 like lines cut
CPENTA       169       2     133     153     134     214     241     212        
CHEXA        170       2     146     153     133      75      89     241+EL   4Q
+EL   4Q     214      88                                                        
CPENTA       171       2     153     189     190     241     208     210        
CHEXA        172       2     145     137     153     146      78     102+EL   4S
+EL   4S     241      89                                                        
CPENTA       173       2     137     154     138     102     242     121        
CHEXA        174       2     152     154     137     145     236     242+EL   4U
+EL   4U     102      78                                                        
CPENTA       175       2     154      98      99     242     119     120        
CHEXA        176       2     226     141     154     152     238     118+EL   4W
+EL   4W     242     236                                                        
CHEXA        177       2     133     155      74      75     214     243+EL   4X
+EL   4X      87      88                                                        
CPENTA       178       2     131     155     193     218     243     216        
CPENTA       179       2     196     155     195     114     243     220        
CHEXA        180       2     196     149      74     155     114     229+EL   50
+EL   50      87     243                                                        
CPENTA       181       2     141     156     142     118     244     117        
CHEXA        182       2     150     156     141     226     240     244+EL   52
+EL   52     118     238                                                        
CHEXA        183       2     196     156     150     149     114     244+EL   53
+EL   53     240     229                                                        
CPENTA       184       2     196     144     156     114     115     244        
CPENTA       185       2     134     153     190     212     241     210        
CPENTA       186       2     153     137     189     241     102     208        
CPENTA       187       2     138     154      99     121     242     120        
CPENTA       188       2     154     141      98     242     118     119        
CPENTA       189       2     193     155     133     216     243     214        
CPENTA       190       2     195     155     131     220     243     218        
CPENTA       191       2     142     156     143     117     244     116        
CPENTA       192       2     156     144     143     244     115     116        
CPENTA       193       2     214     241     212     213     245     211        
CHEXA        194       2      89     241     214      88      92     245+EL   5E
+EL   5E     213      91                                                        
CPENTA       195       2     241     208     210     245     207     209        
CHEXA        196       2      78     102     241      89      79     186+EL   5G
+EL   5G     245      92                                                        
CPENTA       197       2     102     242     121     186     246     128        
CHEXA        198       2     236     242     102      78     235     246+EL   5I
+EL   5I     186      79                                                        
CPENTA       199       2     242     119     120     246     126     127        
CHEXA        200       2     238     118     242     236     237     125+EL   5K
+EL   5K     246     235                                                        
CHEXA        201       2     214     243      87      88     213     247+EL   5L
+EL   5L      90      91                                                        
CPENTA       202       2     218     243     216     217     247     215        
CPENTA       203       2     114     243     220     113     247     219        
CHEXA        204       2     114     229      87     243     113      85+EL   5O
+EL   5O      90     247                                                        
CPENTA       205       2     118     244     117     125     248     124        
CHEXA        206       2     240     244     118     238     239     248+EL   5Q
+EL   5Q     125     237                                                        
CHEXA        207       2     114     244     240     229     113     248+EL   5R
+EL   5R     239      85                                                        
CPENTA       208       2     114     115     244     113     122     248        
CPENTA       209       2     212     241     210     211     245     209        
CPENTA       210       2     241     102     208     245     186     207        
CPENTA       211       2     121     242     120     128     246     127        
CPENTA       212       2     242     118     119     246     125     126        
CPENTA       213       2     216     243     214     215     247     213        
CPENTA       214       2     220     243     218     219     247     217        
CPENTA       215       2     117     244     116     124     248     123        
CPENTA       216       2     244     115     116     248     122     123        
CPENTA       217       2     213     245     211     161     182     160        
CHEXA        218       2      92     245     213      91     176     182+EL   62
+EL   62     161      82                                                        
CPENTA       219       2     245     207     209     182     158     205        
CHEXA        220       2      79     186     245      92     221     185+EL   64
+EL   64     182     176                                                        
CPENTA       221       2     186     246     128     185     184     172        
CHEXA        222       2     235     246     186      79     234     184+EL   66
+EL   66     185     221                                                        
CPENTA       223       2     246     126     127     184     170     106        
CHEXA        224       2     237     125     246     235     233     108+EL   68
+EL   68     184     234                                                        
CHEXA        225       2     213     247      90      91     161     181+EL   69
+EL   69     174      82                                                        
CPENTA       226       2     217     247     215     201     181     162        
CPENTA       227       2     113     247     219     112     181     200        
CHEXA        228       2     113      85      90     247     112     231+EL   6C
+EL   6C     174     181                                                        
CPENTA       229       2     125     248     124     108     183     168        
CHEXA        230       2     239     248     125     237     232     183+EL   6E
+EL   6E     108     233                                                        
CHEXA        231       2     113     248     239      85     112     183+EL   6F
+EL   6F     232     231                                                        
CPENTA       232       2     113     122     248     112     111     183        
CPENTA       233       2     211     245     209     160     182     205        
CPENTA       234       2     245     186     207     182     185     158        
CPENTA       235       2     128     246     127     172     184     106        
CPENTA       236       2     246     125     126     184     108     170        
CPENTA       237       2     215     247     213     162     181     161        
CPENTA       238       2     219     247     217     200     181     201        
CPENTA       239       2     124     248     123     168     183     110        
CPENTA       240       2     248     122     123     183     111     110        
ENDDATA
