ID C:\Users\Dima\Lame3d2\Mpl,FEMAP
SOL SESTATICS
TIME 10000
CEND
  ECHO = NONE
  DISPLACEMENT(PLOT) = ALL
  SPCFORCE(PLOT) = ALL
  OLOAD(PLOT) = ALL
  FORCE(PLOT,CORNER) = ALL
  STRESS(PLOT,CORNER) = ALL
BEGIN BULK
$ ***************************************************************************
$   Written by : FEMAP
$   Version    : 7.00
$   Translator : MSC/NASTRAN
$   From Model : C:\Users\Dima\Lame3d2\Mpls_all\Exe\GeoNTS\Model\model_cylinder.MOD
$   Date       : Wed Jul 16 15:08:41 2008
$ ***************************************************************************
$
PARAM,POST,-1
PARAM,OGEOM,NO
PARAM,AUTOSPC,YES
PARAM,GRDPNT,0
CORD2C         1       0      0.      0.      0.      0.      0.      1.+FEMAPC1
+FEMAPC1      1.      0.      1.
CORD2S         2       0      0.      0.      0.      0.      0.      1.+FEMAPC2
+FEMAPC2      1.      0.      1.
$ FEMAP Load Set 111 : Cylinder BSOURCE 0.06
$ FEMAP Property 1 : Untitled
PSHELL         1       1      0.       1               1              0.
$ FEMAP Property 2 : Untitled
PSHELL         2       1      0.       1               1              0.
$ FEMAP Material 1 : Untitled
MAT1           1                              0.      0.      0.        
GRID         235       0      0.      0.      0.       0        
GRID         236       0     0.2     0.2      0.       0        
GRID         239       0      0.     0.2      0.       0        
GRID         240       0     0.2     0.4      0.       0        
GRID         243       0      0.     0.4      0.       0        
GRID         244       0     0.2     0.6      0.       0        
GRID         247       0      0.     0.6      0.       0        
GRID         250       0      0.      1.      0.       0        
GRID         251       0      0.     0.8      0.       0        
GRID         252       0     0.4      0.      0.       0        
GRID         253       0     0.2      0.      0.       0        
GRID         254       0     0.4     0.2      0.       0        
GRID         262       0     0.2      1.      0.       0        
GRID         263       0     0.2     0.8      0.       0        
GRID         266       0     0.6     0.2      0.       0        
GRID         268       0     0.6     0.4      0.       0        
GRID         269       0     0.4     0.4      0.       0        
GRID         271       0     0.4     0.6      0.       0        
GRID         274       0     0.4      1.      0.       0        
GRID         275       0     0.4     0.8      0.       0        
$ ... 46 like lines cut
CQUAD4       201       1     253     236     239     235                
CQUAD4       202       1     236     240     243     239                
CQUAD4       203       1     240     244     247     243                
CQUAD4       204       1     244     263     251     247                
CQUAD4       205       1     263     262     250     251                
CQUAD4       206       1     252     254     236     253                
CQUAD4       207       1     254     269     240     236                
CQUAD4       208       1     269     271     244     240                
CQUAD4       209       1     271     275     263     244                
CQUAD4       210       1     275     274     262     263                
CQUAD4       211       1     277     266     254     252                
CQUAD4       212       1     266     268     269     254                
CQUAD4       213       1     268     283     271     269                
CQUAD4       214       1     283     287     275     271                
CQUAD4       215       1     287     286     274     275                
CQUAD4       216       1     289     278     266     277                
CQUAD4       217       1     278     280     268     266                
CQUAD4       218       1     280     295     283     268                
CQUAD4       219       1     295     299     287     283                
CQUAD4       220       1     299     298     286     287                
$ ... 30 like lines cut
ENDDATA
