ID C:\Users\Dima\Lame3d2\Mpl,FEMAP
SOL SESTATICS
TIME 10000
CEND
  ECHO = NONE
  DISPLACEMENT(PLOT) = ALL
  SPCFORCE(PLOT) = ALL
  OLOAD(PLOT) = ALL
  FORCE(PLOT,CORNER) = ALL
  STRESS(PLOT,CORNER) = ALL
BEGIN BULK
$ ***************************************************************************
$   Written by : FEMAP
$   Version    : 7.00
$   Translator : MSC/NASTRAN
$   From Model : C:\Users\Dima\Lame3d2\Mpls_all\Exe\GeoNTS\Model\model_cylinder.MOD
$   Date       : Wed Jul 16 16:13:35 2008
$ ***************************************************************************
$
PARAM,POST,-1
PARAM,OGEOM,NO
PARAM,AUTOSPC,YES
PARAM,GRDPNT,0
CORD2C         1       0      0.      0.      0.      0.      0.      1.+FEMAPC1
+FEMAPC1      1.      0.      1.
CORD2S         2       0      0.      0.      0.      0.      0.      1.+FEMAPC2
+FEMAPC2      1.      0.      1.
$ FEMAP Load Set 111 : Cylinder BSOURCE 0.0075
$ FEMAP Property 1 : Untitled
PSHELL         1       1      0.       1               1              0.
$ FEMAP Property 2 : Untitled
PSHELL         2       1      0.       1               1              0.
$ FEMAP Material 1 : Untitled
MAT1           1                              0.      0.      0.        
GRID        1662       0      0.   0.025      0.       0        
GRID        1663       0      0.      0.      0.       0        
GRID        1664       0   0.025      0.      0.       0        
GRID        1665       0    0.05      0.      0.       0        
GRID        1666       0   0.075      0.      0.       0        
GRID        1667       0   0.075   0.025      0.       0        
GRID        1670       0    0.05   0.025      0.       0        
GRID        1673       0   0.025   0.025      0.       0        
GRID        1676       0     0.2      0.      0.       0        
GRID        1677       0     0.2   0.025      0.       0        
GRID        1687       0     0.1   0.025      0.       0        
GRID        1688       0     0.1      0.      0.       0        
GRID        1689       0   0.125      0.      0.       0        
GRID        1690       0    0.15      0.      0.       0        
GRID        1691       0   0.175      0.      0.       0        
GRID        1692       0   0.175   0.025      0.       0        
GRID        1695       0    0.15   0.025      0.       0        
GRID        1698       0   0.125   0.025      0.       0        
GRID        1702       0     0.3   0.025      0.       0        
GRID        1714       0   0.225      0.      0.       0        
$ ... 142 like lines cut
CQUAD4      1052       1    1688    1687    1667    1666                
CQUAD4      1056       1    1666    1667    1670    1665                
CQUAD4      1060       1    1665    1670    1673    1664                
CQUAD4      1064       1    1664    1673    1662    1663                
CQUAD4      1068       1    1676    1677    1692    1691                
CQUAD4      1072       1    1691    1692    1695    1690                
CQUAD4      1076       1    1690    1695    1698    1689                
CQUAD4      1080       1    1689    1698    1687    1688                
CQUAD4      1084       1    1738    1702    1717    1716                
CQUAD4      1088       1    1716    1717    1720    1715                
CQUAD4      1092       1    1715    1720    1723    1714                
CQUAD4      1096       1    1714    1723    1677    1676                
CQUAD4      1100       1    1763    1762    1742    1741                
CQUAD4      1104       1    1741    1742    1745    1740                
CQUAD4      1108       1    1740    1745    1748    1739                
CQUAD4      1112       1    1739    1748    1702    1738                
CQUAD4      1116       1    1751    1787    1767    1766                
CQUAD4      1120       1    1766    1767    1770    1765                
CQUAD4      1124       1    1765    1770    1773    1764                
CQUAD4      1128       1    1764    1773    1762    1763                
$ ... 60 like lines cut
ENDDATA
