ID FEMAP,FEMAP
SOL SESTATICS
TIME 10000
CEND
  ECHO = NONE
  DISPLACEMENT(PLOT) = ALL
  SPCFORCE(PLOT) = ALL
  OLOAD(PLOT) = ALL
  FORCE(PLOT,CORNER) = ALL
  STRESS(PLOT,CORNER) = ALL
BEGIN BULK
$ ***************************************************************************
$   Written by : FEMAP
$   Version    : 7.00
$   Translator : MSC/NASTRAN
$   From Model : 
$   Date       : Thu Apr 17 00:21:50 2008
$ ***************************************************************************
$
PARAM,POST,-1
PARAM,OGEOM,NO
PARAM,AUTOSPC,YES
PARAM,GRDPNT,0
CORD2C         1       0      0.      0.      0.      0.      0.      1.+FEMAPC1
+FEMAPC1      1.      0.      1.
CORD2S         2       0      0.      0.      0.      0.      0.      1.+FEMAPC2
+FEMAPC2      1.      0.      1.
$ FEMAP Property 1 : Untitled
PSHELL         1       1      0.       1      1.       1 0.83333      0.
$ FEMAP Property 2 : Untitled
PSHELL         2       1      0.       1      1.       1 0.83333      0.
$ FEMAP Material 1 : Untitled
MAT1           1                              0.      0.      0.        
GRID          86       0      0.      0.      0.       0        
GRID          88       0      0.     0.1      0.       0        
GRID          90       0      0.     0.2      0.       0        
GRID          92       0      0.     0.3      0.       0        
GRID          93       0     0.1     0.4      0.       0        
GRID          94       0      0.     0.4      0.       0        
GRID          96       0     0.1     0.6      0.       0        
GRID          97       0      0.     0.6      0.       0        
GRID          98       0      0.     0.5      0.       0        
GRID          99       0     0.1     0.7      0.       0        
GRID         100       0      0.     0.8      0.       0        
GRID         101       0      0.     0.7      0.       0        
GRID         102       0     0.1     0.8      0.       0        
GRID         104       0      0.      1.      0.       0        
GRID         105       0      0.     0.9      0.       0        
GRID         107       0     0.1     1.1      0.       0        
GRID         108       0      0.     1.1      0.       0        
GRID         109       0     0.1     1.2      0.       0        
GRID         110       0      0.     1.2      0.       0        
GRID         111       0     0.1     1.3      0.       0        
$ ... 211 like lines cut
CQUAD4        41       1     128     130      88      86                
CQUAD4        42       2     130     132      90      88                
CQUAD4        43       1     132     134      92      90                
CQUAD4        44       2     134      93      94      92                
CQUAD4        45       1      93     140      98      94                
CQUAD4        46       2     140      96      97      98                
CQUAD4        47       1      96      99     101      97                
CQUAD4        48       2      99     102     100     101                
CQUAD4        49       1     102     147     105     100                
CQUAD4        50       2     147     146     104     105                
CQUAD4        51       1     146     107     108     104                
CQUAD4        52       2     107     109     110     108                
CQUAD4        53       1     109     111     114     110                
CQUAD4        54       2     111     155     113     114                
CQUAD4        55       1     155     115     117     113                
CQUAD4        56       2     115     118     116     117                
CQUAD4        57       1     118     164     122     116                
CQUAD4        58       2     164     120     121     122                
CQUAD4        59       1     120     123     126     121                
CQUAD4        60       2     123     124     125     126                
$ ... 180 like lines cut
ENDDATA
