ID FEMAP,FEMAP
SOL SESTATICS
TIME 10000
CEND
  ECHO = NONE
  DISPLACEMENT(PLOT) = ALL
  SPCFORCE(PLOT) = ALL
  OLOAD(PLOT) = ALL
  FORCE(PLOT,CORNER) = ALL
  STRESS(PLOT,CORNER) = ALL
BEGIN BULK
$ ***************************************************************************
$   Written by : FEMAP
$   Version    : 7.00
$   Translator : MSC/NASTRAN
$   From Model : 
$   Date       : Tue Feb 05 21:50:39 2008
$ ***************************************************************************
$
PARAM,POST,-1
PARAM,OGEOM,NO
PARAM,AUTOSPC,YES
PARAM,GRDPNT,0
CORD2C         1       0      0.      0.      0.      0.      0.      1.+FEMAPC1
+FEMAPC1      1.      0.      1.
CORD2S         2       0      0.      0.      0.      0.      0.      1.+FEMAPC2
+FEMAPC2      1.      0.      1.
$ FEMAP Property 1 : Untitled
PSHELL         1       1      0.       1      1.       1 0.83333      0.
$ FEMAP Property 2 : Untitled
PSHELL         2       1      0.       1      1.       1 0.83333      0.
$ FEMAP Material 1 : Untitled
MAT1           1                              0.      0.      0.        
GRID           5       0    0.85   0.375      0.       0        
GRID           7       0   1.025    0.25      0.       0        
GRID           8       0    0.85    0.25      0.       0        
GRID           9       0   1.025     0.5      0.       0        
GRID          11       0     1.2   0.375      0.       0        
GRID          12       0   1.025   0.375      0.       0        
GRID          13       0     1.2      0.      0.       0        
GRID          14       0   1.025      0.      0.       0        
GRID          15       0    0.85      0.      0.       0        
GRID          16       0     1.2    0.25      0.       0        
GRID          17       0     1.2   0.125      0.       0        
GRID          18       0   1.025   0.125      0.       0        
GRID          19       0    0.85   0.125      0.       0        
GRID          20       0   0.725      0.      0.       0        
GRID          22       0     0.6   0.125      0.       0        
GRID          24       0   0.725    0.25      0.       0        
GRID          25       0   0.725   0.125      0.       0        
GRID          29       0    0.85     0.5      0.       0        
GRID          30       0    0.85   0.625      0.       0        
GRID          32       0   1.025    0.75      0.       0        
$ ... 52 like lines cut
CQUAD4         5       1       7      16      11      12                
CQUAD4         6       1       8       7      12       5                
CQUAD4         7       1      12      11      35       9                
CQUAD4         8       1       5      12       9      29                
CQUAD4         9       1      14      13      17      18                
CQUAD4        10       1      15      14      18      19                
CQUAD4        11       1      18      17      16       7                
CQUAD4        12       1      19      18       7       8                
CQUAD4        13       1      19       8      24      25                
CQUAD4        14       1      15      19      25      20                
CQUAD4        15       1      25      24      98      22                
CQUAD4        16       1      20      25      22      96                
CQUAD4        21       1      41      32      37      36                
CQUAD4        22       1      32      33      30      37                
CQUAD4        23       1      36      37       9      35                
CQUAD4        24       1      37      30      29       9                
CQUAD4        25       1      38      39      43      42                
CQUAD4        30       1      89      75      82      81                
CQUAD4        31       1      75      76      70      82                
CQUAD4        32       1      81      82      59      80                
$ ... 28 like lines cut
ENDDATA
