ID FEMAP,FEMAP
SOL SESTATICS
TIME 10000
CEND
  ECHO = NONE
  DISPLACEMENT(PLOT) = ALL
  SPCFORCE(PLOT) = ALL
  OLOAD(PLOT) = ALL
  FORCE(PLOT,CORNER) = ALL
  STRESS(PLOT,CORNER) = ALL
BEGIN BULK
$ ***************************************************************************
$   Written by : FEMAP
$   Version    : 7.00
$   Translator : MSC/NASTRAN
$   From Model : 
$   Date       : Sat Jan 26 19:24:43 2008
$ ***************************************************************************
$
PARAM,POST,-1
PARAM,OGEOM,NO
PARAM,AUTOSPC,YES
PARAM,GRDPNT,0
CORD2C         1       0      0.      0.      0.      0.      0.      1.+FEMAPC1
+FEMAPC1      1.      0.      1.
CORD2S         2       0      0.      0.      0.      0.      0.      1.+FEMAPC2
+FEMAPC2      1.      0.      1.
$ FEMAP Property 1 : Ono box
PSHELL         1       1      0.       1               1              0.
$ FEMAP Property 2 : Inclusion
PSHELL         2       1      0.       1               1              0.
$ FEMAP Material 1 : Untitled
MAT1           1                              0.      0.      0.        
GRID           4       0      0.     0.5      0.       0        
GRID           5       0      0.     0.6      0.       0        
GRID           6       0      0.     0.7      0.       0        
GRID           7       0      0.     0.8      0.       0        
GRID           8       0      0.     0.9      0.       0        
GRID           9       0      0.      1.      0.       0        
GRID          10       0     0.1      1.      0.       0        
GRID          11       0     0.2      1.      0.       0        
GRID          12       0     0.3      1.      0.       0        
GRID          13       0     0.4      1.      0.       0        
GRID          14       0     0.5      1.      0.       0        
GRID          15       0     0.6      1.      0.       0        
GRID          17       0     0.6 0.83333      0.       0        
GRID          19       0    0.43    0.75      0.       0        
GRID          20       0    0.35   0.585      0.       0        
GRID          21       0 0.31034 0.89899      0.       0        
GRID          22       0 0.33031 0.78988      0.       0        
GRID          23       0 0.28509  0.6863      0.       0        
GRID          24       0 0.26989 0.59181      0.       0        
GRID          25       0  0.1923 0.69363      0.       0        
$ ... 139 like lines cut
CQUAD4         1       1      23      22      29      25                
CQUAD4         2       1      22      21      30      29                
CQUAD4         3       1      12      11      30      21                
CQUAD4         4       1      25      29      27      26                
CQUAD4         5       1      29      30      28      27                
CQUAD4         6       1      11      10      28      30                
CQUAD4         7       1       9       8      28      10                
CQUAD4         8       1       8       7      27      28                
CQUAD4         9       1       7       6      26      27                
CQUAD4        10       1       6       5      31      26                
CQUAD4        11       1       4     256      31       5                
CQUAD4        12       1      26      31      32      25                
CQUAD4        13       1     256     255      32      31                
CQUAD4        14       1      25      32      24      23                
CQUAD4        15       1     255     254      24      32                
CQUAD4        16       1      65      17      35      44                
CQUAD4        17       1      17      63      36      35                
CQUAD4        18       1      15      14      36      63                
CQUAD4        19       1      44      35      33      19                
CQUAD4        20       1      35      36      34      33                
CQUAD4        21       1      14      13      34      36                
CQUAD4        22       1      12      21      34      13                
CQUAD4        23       1      21      22      33      34                
CTRIA3        24       1      33      22      19                        
CQUAD4        25       1      22      23      43      19                
CQUAD4        26       1      23      24      20      43                
CQUAD4        27       1     254     298      20      24                
CQUAD4        28       2     298      41      45      20                
CQUAD4        29       2      41      40      46      45                
CQUAD4        30       2     295      85      46      40                
CQUAD4        31       2      20      45      19      43                
CQUAD4        32       2      19      45      47      44                
CTRIA3        33       2      45      46      47                        
CQUAD4        34       2      85      84      47      46                
CQUAD4        35       2      84      65      44      47                
CQUAD4        36       1      69      70      72      76                
CQUAD4        37       1      68      69      76      77                
CQUAD4        38       1      58      59      68      77                
CQUAD4        39       1      76      72      73      74                
CQUAD4        40       1      77      76      74      75                
CQUAD4        41       1      57      58      77      75                
CQUAD4        42       1      55      56      57      75                
CQUAD4        43       1      54      55      75      74                
CQUAD4        44       1      53      54      74      73                
CQUAD4        45       1      52      53      73      78                
CQUAD4        46       1      50      98      52      78                
CQUAD4        47       1      78      73      72      79                
CQUAD4        48       1      96      50      78      79                
CQUAD4        49       1      79      72      70      71                
CQUAD4        50       1      95      96      79      71                
CQUAD4        51       1      17      65      91      82                
CQUAD4        52       1      63      17      82      83                
CQUAD4        53       1      61      15      63      83                
$ ... 5 like lines cut
CTRIA3        59       1      69      80      66                        
CQUAD4        60       1      70      69      66      90                
CQUAD4        61       1      71      70      90      67                
CQUAD4        62       1     136      95      71      67                
CQUAD4        63       2      88     136      67      92                
CQUAD4        64       2      87      88      92      93                
CQUAD4        65       2      85     295      87      93                
CQUAD4        66       2      92      67      90      66                
CQUAD4        67       2      92      66      91      94                
CTRIA3        68       2      93      92      94                        
CQUAD4        69       2      84      85      93      94                
CQUAD4        70       2      65      84      94      91                
CQUAD4        71       1     117     116     123     119                
CQUAD4        72       1     116     115     124     123                
CQUAD4        73       1     106     105     124     115                
CQUAD4        74       1     119     123     121     120                
CQUAD4        75       1     123     124     122     121                
CQUAD4        76       1     105     104     122     124                
CQUAD4        77       1     103     102     122     104                
CQUAD4        78       1     102     101     121     122                
CQUAD4        79       1     101     100     120     121                
CQUAD4        80       1     100      99     125     120                
CQUAD4        81       1      98      50     125      99                
CQUAD4        82       1     120     125     126     119                
CQUAD4        83       1      50      96     126     125                
CQUAD4        84       1     119     126     118     117                
CQUAD4        85       1      96      95     118     126                
CQUAD4        86       1     271     270     129     138                
CQUAD4        87       1     270     269     130     129                
CQUAD4        88       1     109     108     130     269                
$ ... 5 like lines cut
CTRIA3        94       1     127     116     113                        
CQUAD4        95       1     116     117     137     113                
CQUAD4        96       1     117     118     114     137                
CQUAD4        97       1      95     136     114     118                
CQUAD4        98       2     136      88     139     114                
CQUAD4        99       2      88      87     140     139                
CQUAD4       100       2     295     294     140      87                
CQUAD4       101       2     114     139     113     137                
CQUAD4       102       2     113     139     141     138                
CTRIA3       103       2     139     140     141                        
CQUAD4       104       2     294     131     141     140                
CQUAD4       105       2     131     271     138     141                
CQUAD4       186       1     277     278     280     284                
CQUAD4       187       1     276     277     284     285                
CQUAD4       188       1     264     265     276     285                
CQUAD4       189       1     284     280     281     282                
CQUAD4       190       1     285     284     282     283                
CQUAD4       191       1     263     264     285     283                
CQUAD4       192       1     261     262     263     283                
CQUAD4       193       1     260     261     283     282                
CQUAD4       194       1     259     260     282     281                
CQUAD4       195       1     258     259     281     286                
CQUAD4       196       1     256       4     258     286                
CQUAD4       197       1     286     281     280     287                
CQUAD4       198       1     255     256     286     287                
CQUAD4       199       1     287     280     278     279                
CQUAD4       200       1     254     255     287     279                
CQUAD4       201       1     270     271     302     290                
CQUAD4       202       1     269     270     290     291                
CQUAD4       203       1     267     109     269     291                
$ ... 5 like lines cut
CTRIA3       209       1     277     288     273                        
CQUAD4       210       1     278     277     273     300                
CQUAD4       211       1     279     278     300     275                
CQUAD4       212       1     298     254     279     275                
CQUAD4       213       2      41     298     275     303                
CQUAD4       214       2      40      41     303     304                
CQUAD4       215       2     294     295      40     304                
CQUAD4       216       2     303     275     300     273                
CQUAD4       217       2     303     273     302     305                
CTRIA3       218       2     304     303     305                        
CQUAD4       219       2     131     294     304     305                
CQUAD4       220       2     271     131     305     302                
ENDDATA
