ID FEMAP,FEMAP
SOL SESTATICS
TIME 10000
CEND
  ECHO = NONE
  DISPLACEMENT(PLOT) = ALL
  SPCFORCE(PLOT) = ALL
  OLOAD(PLOT) = ALL
  FORCE(PLOT,CORNER) = ALL
  STRESS(PLOT,CORNER) = ALL
BEGIN BULK
$ ***************************************************************************
$   Written by : FEMAP
$   Version    : 7.00
$   Translator : MSC/NASTRAN
$   From Model : 
$   Date       : Sat Jan 26 19:50:09 2008
$ ***************************************************************************
$
PARAM,POST,-1
PARAM,OGEOM,NO
PARAM,AUTOSPC,YES
PARAM,GRDPNT,0
CORD2C         1       0      0.      0.      0.      0.      0.      1.+FEMAPC1
+FEMAPC1      1.      0.      1.
CORD2S         2       0      0.      0.      0.      0.      0.      1.+FEMAPC2
+FEMAPC2      1.      0.      1.
$ FEMAP Property 1 : Ono box
PSHELL         1       1      0.       1               1              0.
$ FEMAP Property 2 : Inclusion
PSHELL         2       1      0.       1               1              0.
$ FEMAP Material 1 : Untitled
MAT1           1                              0.      0.      0.        
GRID           3       0   1.025     0.5      0.       0        
GRID           5       0 1.14167     0.5      0.       0        
GRID           6       0     1.2     0.5      0.       0        
GRID           7       0     1.2  0.4375      0.       0        
GRID           8       0     1.2   0.375      0.       0        
GRID           9       0     1.2  0.3125      0.       0        
GRID          10       0     1.2    0.25      0.       0        
GRID          11       0     1.2  0.1875      0.       0        
GRID          12       0     1.2   0.125      0.       0        
GRID          13       0     1.2  0.0625      0.       0        
GRID          14       0     1.2      0.      0.       0        
GRID          15       0    1.14      0.      0.       0        
GRID          16       0    1.08      0.      0.       0        
GRID          17       0    1.02      0.      0.       0        
GRID          18       0    0.96      0.      0.       0        
GRID          19       0     0.9      0.      0.       0        
GRID          20       0    0.84      0.      0.       0        
GRID          21       0    0.78      0.      0.       0        
GRID          22       0    0.72      0.      0.       0        
GRID          23       0    0.66      0.      0.       0        
$ ... 337 like lines cut
CQUAD4         1       1      37      36      48      41                
CQUAD4         2       1      36      35      49      48                
CQUAD4         3       1      35      34      50      49                
CQUAD4         4       1      19      18      50      34                
CQUAD4         5       1      41      48      45      42                
CQUAD4         6       1      48      49      46      45                
CQUAD4         7       1      49      50      47      46                
CQUAD4         8       1      18      17      47      50                
CQUAD4         9       1      17      16      53      47                
CQUAD4        10       1      16      15      54      53                
CQUAD4        11       1      14      13      54      15                
CQUAD4        12       1      47      53      51      46                
CQUAD4        13       1      53      54      52      51                
CQUAD4        14       1      13      12      52      54                
CQUAD4        15       1      42      45      55      43                
CQUAD4        16       1      46      51      55      45                
CQUAD4        17       1      51      52      56      55                
CQUAD4        18       1      12      11      56      52                
CQUAD4        19       1      55      56      44      43                
CQUAD4        20       1      11      10      44      56                
$ ... 300 like lines cut
ENDDATA
