ID FEMAP,FEMAP
SOL SESTATICS
TIME 10000
CEND
  ECHO = NONE
  DISPLACEMENT(PLOT) = ALL
  SPCFORCE(PLOT) = ALL
  OLOAD(PLOT) = ALL
  FORCE(PLOT,CORNER) = ALL
  STRESS(PLOT,CORNER) = ALL
BEGIN BULK
$ ***************************************************************************
$   Written by : FEMAP
$   Version    : 7.00
$   Translator : MSC/NASTRAN
$   From Model : 
$   Date       : Sat Jan 26 19:52:58 2008
$ ***************************************************************************
$
PARAM,POST,-1
PARAM,OGEOM,NO
PARAM,AUTOSPC,YES
PARAM,GRDPNT,0
CORD2C         1       0      0.      0.      0.      0.      0.      1.+FEMAPC1
+FEMAPC1      1.      0.      1.
CORD2S         2       0      0.      0.      0.      0.      0.      1.+FEMAPC2
+FEMAPC2      1.      0.      1.
$ FEMAP Property 1 : Ono box
PSHELL         1       1      0.       1               1              0.
$ FEMAP Property 2 : Inclusion
PSHELL         2       1      0.       1               1              0.
$ FEMAP Material 1 : Untitled
MAT1           1                              0.      0.      0.        
GRID           3       0   1.025     0.5      0.       0        
GRID           4       0 1.08333     0.5      0.       0        
GRID           6       0     1.2     0.5      0.       0        
GRID           7       0     1.2 0.44444      0.       0        
GRID           8       0     1.2 0.38889      0.       0        
GRID           9       0     1.2 0.33333      0.       0        
GRID          10       0     1.2 0.27778      0.       0        
GRID          11       0     1.2 0.22222      0.       0        
GRID          12       0     1.2 0.16667      0.       0        
GRID          13       0     1.2 0.11111      0.       0        
GRID          14       0     1.20.055556      0.       0        
GRID          15       0     1.2      0.      0.       0        
GRID          16       0 1.14546      0.      0.       0        
GRID          17       0 1.09091      0.      0.       0        
GRID          18       0 1.03636      0.      0.       0        
GRID          19       0 0.98182      0.      0.       0        
GRID          20       0 0.92727      0.      0.       0        
GRID          21       0 0.87273      0.      0.       0        
GRID          22       0 0.81818      0.      0.       0        
GRID          23       0 0.76364      0.      0.       0        
$ ... 431 like lines cut
CQUAD4         1       1      36      35      51      41                
CQUAD4         2       1      35      34      52      51                
CQUAD4         3       1      34      33      53      52                
CQUAD4         4       1      20      19      53      33                
CQUAD4         5       1      41      51      48      42                
CQUAD4         6       1      51      52      49      48                
CQUAD4         7       1      52      53      50      49                
CQUAD4         8       1      19      18      50      53                
CQUAD4         9       1      42      48      45      43                
CQUAD4        10       1      48      49      46      45                
CQUAD4        11       1      49      50      47      46                
CQUAD4        12       1      18      17      47      50                
CQUAD4        13       1      43      45      54      44                
CQUAD4        14       1      45      46      55      54                
CQUAD4        15       1      46      47      56      55                
CQUAD4        16       1      17      16      56      47                
CQUAD4        17       1      15      14      56      16                
CQUAD4        18       1      14      13      55      56                
CQUAD4        19       1      13      12      54      55                
CQUAD4        20       1      12      11      44      54                
$ ... 53 like lines cut
CTRIA3        74       1      76      77     106                        
CQUAD4        75       1      36      37     106      77                
CQUAD4        76       1      37      38     105     106                
CQUAD4        77       1      38      39      32     105                
CQUAD4        78       1      39      40     104      32                
CQUAD4        79       1     125     103     104      40                
CQUAD4        80       2     110     109     114     113                
CQUAD4        81       2      32     104     114     109                
CQUAD4        82       2     103     226     114     104                
CQUAD4        83       2     226     225     113     114                
CQUAD4        84       2     225     224     115     113                
CQUAD4        85       2     224     223     116     115                
CQUAD4        86       2     541      97     116     223                
CQUAD4        87       2     113     115     111     110                
CQUAD4        88       2     115     116     112     111                
CQUAD4        89       2      97     539     112     116                
CQUAD4        90       2     120     119     122     121                
CQUAD4        91       2     107     106     122     119                
CQUAD4        92       2     106     105     121     122                
CQUAD4        93       2      32     109     121     105                
CQUAD4        94       2     109     110     120     121                
$ ... 82 like lines cut
CTRIA3       177       1     201     200     230                        
CQUAD4       178       1     161     160     201     230                
CQUAD4       179       1     162     161     230     229                
CQUAD4       180       1     163     162     229     156                
CQUAD4       181       1     164     163     156     228                
CQUAD4       182       1     103     125     164     228                
CQUAD4       183       2     233     234     237     238                
CQUAD4       184       2     228     156     233     238                
CQUAD4       185       2     226     103     228     238                
CQUAD4       186       2     225     226     238     237                
CQUAD4       187       2     224     225     237     239                
CQUAD4       188       2     223     224     239     240                
CQUAD4       189       2     221     541     223     240                
CQUAD4       190       2     239     237     234     235                
CQUAD4       191       2     240     239     235     236                
CQUAD4       192       2     344     221     240     236                
CQUAD4       193       2     243     244     245     246                
CQUAD4       194       2     230     231     243     246                
CQUAD4       195       2     229     230     246     245                
CQUAD4       196       2     233     156     229     245                
CQUAD4       197       2     234     233     245     244                
$ ... 82 like lines cut
CTRIA3       280       1     324     325     354                        
CQUAD4       281       1     284     285     354     325                
CQUAD4       282       1     285     286     353     354                
CQUAD4       283       1     286     287     280     353                
CQUAD4       284       1     287     288     352     280                
CQUAD4       285       1     438     351     352     288                
CQUAD4       286       2     358     357     362     361                
CQUAD4       287       2     280     352     362     357                
CQUAD4       288       2     351     350     362     352                
CQUAD4       289       2     350     349     361     362                
CQUAD4       290       2     349     348     363     361                
CQUAD4       291       2     348     542     364     363                
CQUAD4       292       2     541     221     364     542                
CQUAD4       293       2     361     363     359     358                
CQUAD4       294       2     363     364     360     359                
CQUAD4       295       2     221     344     360     364                
CQUAD4       296       2     368     367     370     369                
CQUAD4       297       2     355     354     370     367                
CQUAD4       298       2     354     353     369     370                
CQUAD4       299       2     280     357     369     353                
CQUAD4       300       2     357     358     368     369                
$ ... 82 like lines cut
CTRIA3       392       1     520     519     550                        
CQUAD4       393       1     480     479     520     550                
CQUAD4       394       1     481     480     550     549                
CQUAD4       395       1     482     481     549     474                
CQUAD4       396       1     483     482     474     547                
CQUAD4       397       1     351     438     483     547                
CQUAD4       398       2     554     555     558     559                
CQUAD4       399       2     547     474     554     559                
CQUAD4       400       2     350     351     547     559                
CQUAD4       401       2     349     350     559     558                
CQUAD4       402       2     348     349     558     560                
CQUAD4       403       2     542     348     560     561                
CQUAD4       404       2      97     541     542     561                
CQUAD4       405       2     560     558     555     556                
CQUAD4       406       2     561     560     556     557                
CQUAD4       407       2     539      97     561     557                
CQUAD4       408       2     564     565     566     567                
CQUAD4       409       2     550     551     564     567                
CQUAD4       410       2     549     550     567     566                
CQUAD4       411       2     554     474     549     566                
CQUAD4       412       2     555     554     566     565                
$ ... 9 like lines cut
ENDDATA
