ID FEMAP,FEMAP
SOL SESTATICS
TIME 10000
CEND
  ECHO = NONE
  DISPLACEMENT(PLOT) = ALL
  SPCFORCE(PLOT) = ALL
  OLOAD(PLOT) = ALL
  FORCE(PLOT,CORNER) = ALL
  STRESS(PLOT,CORNER) = ALL
BEGIN BULK
$ ***************************************************************************
$   Written by : FEMAP
$   Version    : 7.00
$   Translator : MSC/NASTRAN
$   From Model : 
$   Date       : Sat Feb 23 18:35:13 2008
$ ***************************************************************************
$
PARAM,POST,-1
PARAM,OGEOM,NO
PARAM,AUTOSPC,YES
PARAM,GRDPNT,0
CORD2C         1       0      0.      0.      0.      0.      0.      1.+FEMAPC1
+FEMAPC1      1.      0.      1.
CORD2S         2       0      0.      0.      0.      0.      0.      1.+FEMAPC2
+FEMAPC2      1.      0.      1.
$ FEMAP Property 1 : Untitled
PSHELL         1       1      0.       1      1.       1 0.83333      0.
$ FEMAP Property 2 : Untitled
PSHELL         2       1      0.       1      1.       1 0.83333      0.
$ FEMAP Material 1 : Untitled
MAT1           1                              0.      0.      0.        
GRID          69       0      0.     0.5      0.       0        
GRID          70       0   0.175     0.5      0.       0        
GRID          73       0    0.43    0.75      0.       0        
GRID          76       0     0.6      1.      0.       0        
GRID          77       0    0.45      1.      0.       0        
GRID          78       0     0.3      1.      0.       0        
GRID          79       0    0.15      1.      0.       0        
GRID          80       0      0.      1.      0.       0        
GRID          81       0      0. 0.83333      0.       0        
GRID          82       0      0. 0.66667      0.       0        
GRID          83       0 0.15934 0.83638      0.       0        
GRID          84       0 0.31485 0.84358      0.       0        
GRID          85       0 0.44891 0.86718      0.       0        
GRID          86       0 0.17127 0.66837      0.       0        
GRID          90       0     1.2 0.66667      0.       0        
GRID          91       0     1.2 0.83333      0.       0        
GRID          92       0     1.2      1.      0.       0        
GRID          93       0    1.05      1.      0.       0        
GRID          94       0     0.9      1.      0.       0        
GRID          95       0    0.75      1.      0.       0        
$ ... 40 like lines cut
CQUAD4        76       1      79      80      81      83                
CQUAD4        77       1      78      79      83      84                
CQUAD4        78       1      77      78      84      85                
CQUAD4        79       1      97      76      77      85                
CQUAD4        80       1      83      81      82      86                
CQUAD4        81       1      73      98      97      85                
CQUAD4        82       1     147      73      85      84                
CQUAD4        83       1     147      84      83      86                
CQUAD4        84       1      70     141     147      86                
CQUAD4        85       1      69      70      86      82                
CQUAD4        86       1      95      76      97     101                
CQUAD4        87       1      94      95     101     102                
CQUAD4        88       1      93      94     102     103                
CQUAD4        89       1      91      92      93     103                
CQUAD4        90       1     101      97      98     153                
CQUAD4        91       1     102     101     153     152                
CQUAD4        92       1     103     102     152     104                
CQUAD4        93       1      90      91     103     104                
CQUAD4        94       1     109     108      90     104                
CQUAD4        95       1     110     109     104     152                
$ ... 20 like lines cut
ENDDATA
