ID C:\Users\Dima\Lame3d2\Mpl,FEMAP
SOL SESTATICS
TIME 10000
CEND
  ECHO = NONE
  DISPLACEMENT(PLOT) = ALL
  SPCFORCE(PLOT) = ALL
  OLOAD(PLOT) = ALL
  FORCE(PLOT,CORNER) = ALL
  STRESS(PLOT,CORNER) = ALL
BEGIN BULK
$ ***************************************************************************
$   Written by : FEMAP
$   Version    : 7.00
$   Translator : MSC/NASTRAN
$   From Model : C:\Users\Dima\Lame3d2\Mpls_all\Exe\Models_nas\GeoNTS\Model\model_streep2.MOD
$   Date       : Mon Oct 05 01:33:50 2009
$ ***************************************************************************
$
PARAM,POST,-1
PARAM,OGEOM,NO
PARAM,AUTOSPC,YES
PARAM,GRDPNT,0
CORD2C         1       0      0.      0.      0.      0.      0.      1.+FEMAPC1
+FEMAPC1      1.      0.      1.
CORD2S         2       0      0.      0.      0.      0.      0.      1.+FEMAPC2
+FEMAPC2      1.      0.      1.
$ FEMAP Property 1 : Untitled
PSHELL         1       1      0.       1               1              0.
$ FEMAP Material 1 : Untitled
MAT1           1                              0.      0.      0.        
GRID           1       0      0.    0.01      0.       0        
GRID           2       0      0.      0.      0.       0        
GRID           3       0      1.      0.      0.       0        
GRID           4       0      1.    0.02      0.       0        
GRID           5       0      0.    0.02      0.       0        
GRID           6       0      1.    0.01      0.       0        
GRID           7       0      1.    0.03      0.       0        
GRID           8       0      0.    0.03      0.       0        
GRID           9       0      1.    0.05      0.       0        
GRID          10       0      0.    0.04      0.       0        
GRID          11       0      1.    0.04      0.       0        
GRID          12       0      1.    0.06      0.       0        
GRID          13       0      0.    0.05      0.       0        
GRID          14       0      1.    0.07      0.       0        
GRID          15       0      0.    0.07      0.       0        
GRID          16       0      0.    0.06      0.       0        
GRID          17       0      1.    0.08      0.       0        
GRID          18       0      0.    0.08      0.       0        
GRID          19       0      1.    0.09      0.       0        
GRID          20       0      0.     0.1      0.       0        
$ ... 382 like lines cut
CQUAD4         1       1       6       1       2       3                
CQUAD4         2       1       4       5       1       6                
CQUAD4         3       1       7       8       5       4                
CQUAD4         4       1      11      10       8       7                
CQUAD4         5       1       9      13      10      11                
CQUAD4         6       1      12      16      13       9                
CQUAD4         7       1      14      15      16      12                
CQUAD4         8       1      17      18      15      14                
CQUAD4         9       1      19      21      18      17                
CQUAD4        10       1      22      20      21      19                
CQUAD4        11       1      25      24      20      22                
CQUAD4        12       1      27      23      24      25                
CQUAD4        13       1      29      26      23      27                
CQUAD4        14       1      32      28      26      29                
CQUAD4        15       1      30      31      28      32                
CQUAD4        16       1      33      34      31      30                
CQUAD4        17       1      37      36      34      33                
CQUAD4        18       1      40      35      36      37                
CQUAD4        19       1      38      39      35      40                
CQUAD4        20       1      41      42      39      38                
$ ... 180 like lines cut
ENDDATA
