ID FEMAP,FEMAP
SOL SESTATICS
TIME 10000
CEND
  ECHO = NONE
  DISPLACEMENT(PLOT) = ALL
  SPCFORCE(PLOT) = ALL
  OLOAD(PLOT) = ALL
  FORCE(PLOT,CORNER) = ALL
  STRESS(PLOT,CORNER) = ALL
  LOAD = 1
BEGIN BULK
$ ***************************************************************************
$   Written by : FEMAP
$   Version    : 7.00
$   Translator : MSC/NASTRAN
$   From Model : 
$   Date       : Wed Jul 26 09:48:45 2006
$ ***************************************************************************
$
PARAM,POST,-1
PARAM,OGEOM,NO
PARAM,AUTOSPC,YES
PARAM,GRDPNT,0
CORD2C         1       0      0.      0.      0.      0.      0.      1.+FEMAPC1
+FEMAPC1      1.      0.      1.
CORD2S         2       0      0.      0.      0.      0.      0.      1.+FEMAPC2
+FEMAPC2      1.      0.      1.
$ FEMAP Load Set 1 : SrcPlane Vn 1.0e0 0.0e0
PLOAD4         1     886    111.                             254      47
PLOAD4         1     888    111.                              28      47
PLOAD4         1     890    111.                              30      31
PLOAD4         1     944    111.                             274      31
PLOAD4         1     980    111.                             276     527
PLOAD4         1    1111    111.                             283     502
PLOAD4         1    1252    111.                             282     515
PLOAD4         1    1319    111.                             286     520
PLOAD4         1    1351    111.                             280     525
PLOAD4         1    1352    111.                             286     520
PLOAD4         1    1380    111.                             284      47
PLOAD4         1    1412    111.                             259     397
PLOAD4         1    1448    111.                             249     465
PLOAD4         1    1459    111.                             275     526
PLOAD4         1    1460    111.                             223     239
PLOAD4         1    1547    111.                             278     502
PLOAD4         1    1549    111.                             248     457
PLOAD4         1    1600    111.                             289     518
PLOAD4         1    1630    111.                             273     464
PLOAD4         1    1631    111.                             249     465
$ ... 52 like lines cut
$ FEMAP Property 1 : Untitled
PSOLID         1       1       0        
$ FEMAP Material 1 : Untitled
MAT1           1                              0.      0.      0.        
GRID           3       0    -0.5 0.66667    -0.5       0        
GRID           4       0    -0.5     0.5    -0.5       0        
GRID           5       0    -0.5 0.33333    -0.5       0        
GRID           8       0    -0.5-0.16667    -0.5       0        
GRID           9       0    -0.5-0.33333    -0.5       0        
GRID          11       0    -0.5    -0.5-0.33333       0        
GRID          13       0    -0.5    -0.5      0.       0        
GRID          15       0    -0.5    -0.5 0.33333       0        
GRID          17       0    -0.5-0.33333     0.5       0        
GRID          19       0    -0.5      0.     0.5       0        
GRID          22       0    -0.5     0.5     0.5       0        
GRID          24       0    -0.5 0.83333     0.5       0        
GRID          26       0    -0.5      1. 0.33333       0        
GRID          28       0    -0.5      1.      0.       0        
GRID          30       0    -0.5      1.-0.33333       0        
GRID          31       0    -0.5 0.83333-0.33333       0        
GRID          32       0    -0.5 0.66667-0.33333       0        
GRID          33       0    -0.5     0.5-0.33333       0        
GRID          34       0    -0.5 0.33333-0.33333       0        
GRID          35       0    -0.5 0.16667-0.33333       0        
$ ... 457 like lines cut
CTETRA       769       1     501     502      39      40                        
CTETRA       770       1     501     503      40      41                        
CTETRA       771       1     501     466     504     442                        
CTETRA       772       1     501     502     503     505                        
CTETRA       773       1     212     506     214     215                        
CTETRA       774       1     501     442     504      33                        
CTETRA       775       1     507     508     509     510                        
CTETRA       776       1     507     511     470     496                        
CTETRA       777       1     507     510     512     511                        
CTETRA       778       1     513     503     514     515                        
CTETRA       779       1     516     513     503     514                        
CTETRA       780       1     515     517     518     514                        
CTETRA       781       1     519     513     515     520                        
CTETRA       782       1     521      83     175     161                        
CTETRA       783       1     520     519     517     515                        
CTETRA       784       1     515     287     520     282                        
CTETRA       785       1     520     517     292     515                        
CTETRA       786       1     242     522     523     524                        
CTETRA       787       1     522     525     238     526                        
CTETRA       788       1     526     522     527     528                        
$ ... 1526 like lines cut
ENDDATA
