ID C:\Users\Dima\Lame3d2\Mpl,FEMAP
SOL SESTATICS
TIME 10000
CEND
  ECHO = NONE
  DISPLACEMENT(PLOT) = ALL
  SPCFORCE(PLOT) = ALL
  OLOAD(PLOT) = ALL
  FORCE(PLOT,CORNER) = ALL
  STRESS(PLOT,CORNER) = ALL
BEGIN BULK
$ ***************************************************************************
$   Written by : FEMAP
$   Version    : 7.00
$   Translator : MSC/NASTRAN
$   From Model : C:\Users\Dima\Lame3d2\Mpls_all\Exe\Acoustic\Solid\ono_box0.MOD
$   Date       : Wed Mar 14 20:18:00 2007
$ ***************************************************************************
$
PARAM,POST,-1
PARAM,OGEOM,NO
PARAM,AUTOSPC,YES
PARAM,GRDPNT,0
CORD2C         1       0      0.      0.      0.      0.      0.      1.+FEMAPC1
+FEMAPC1      1.      0.      1.
CORD2S         2       0      0.      0.      0.      0.      0.      1.+FEMAPC2
+FEMAPC2      1.      0.      1.
$ FEMAP Property 1 : ONO BOX
PSHELL         1       1      0.       1               1              0.
$ FEMAP Property 2 : INCLUSION
PSHELL         2       1      0.       1               1              0.
$ FEMAP Material 1 : Untitled
MAT1           1                              0.      0.      0.        
GRID         153       0     0.6 0.33333     0.0       0        
GRID         154       0     0.6 0.41667     0.0       0        
GRID         155       0     0.6     0.5     0.0       0        
GRID         156       0 0.51667     0.5     0.0       0        
GRID         157       0 0.43333     0.5     0.0       0        
GRID         158       0    0.35     0.5     0.0       0        
GRID         160       0    0.35 0.33333     0.0       0        
GRID         162       0 0.43333    0.25     0.0       0        
GRID         163       0 0.51667    0.25     0.0       0        
GRID         164       0 0.51667 0.33333     0.0       0        
GRID         165       0 0.51667 0.41667     0.0       0        
GRID         166       0 0.43333 0.33333     0.0       0        
GRID         167       0 0.43333 0.41667     0.0       0        
GRID         168       0      0.      0.     0.0       0        
GRID         169       00.085714      0.     0.0       0        
GRID         170       0 0.17143      0.     0.0       0        
GRID         171       0 0.25714      0.     0.0       0        
GRID         172       0 0.34286      0.     0.0       0        
GRID         173       0 0.42857      0.     0.0       0        
GRID         174       0 0.51429      0.     0.0       0        
$ ... 36 like lines cut
CQUAD4        71       2     178     153     164     163                
CQUAD4        72       2     153     154     165     164                
CQUAD4        73       2     154     155     156     165                
CQUAD4        74       2     163     164     166     162                
CQUAD4        75       2     164     165     167     166                
CQUAD4        76       2     165     156     157     167                
CQUAD4        77       2     162     166     160     181                
CQUAD4        78       2     166     167     183     160                
CQUAD4        79       2     167     157     158     183                
CQUAD4        80       1     177     178     163     201                
CQUAD4        81       1     176     177     201     202                
CQUAD4        82       1     174     175     176     202                
CQUAD4        83       1     201     163     162     203                
CQUAD4        84       1     202     201     203     204                
CQUAD4        85       1     173     174     202     204                
CQUAD4        86       1     203     162     181     199                
CQUAD4        87       1     204     203     199     200                
CQUAD4        88       1     172     173     204     200                
CQUAD4        89       1     183     158     185     194                
CQUAD4        90       1     160     183     194     195                
$ ... 22 like lines cut
ENDDATA
