ID FEMAP,FEMAP
SOL SESTATICS
TIME 10000
CEND
  ECHO = NONE
  DISPLACEMENT(PLOT) = ALL
  SPCFORCE(PLOT) = ALL
  OLOAD(PLOT) = ALL
  FORCE(PLOT,CORNER) = ALL
  STRESS(PLOT,CORNER) = ALL
BEGIN BULK
$ ***************************************************************************
$   Written by : FEMAP
$   Version    : 7.00
$   Translator : MSC/NASTRAN
$   From Model : 
$   Date       : Tue Feb 05 21:42:03 2008
$ ***************************************************************************
$
PARAM,POST,-1
PARAM,OGEOM,NO
PARAM,AUTOSPC,YES
PARAM,GRDPNT,0
CORD2C         1       0      0.      0.      0.      0.      0.      1.+FEMAPC1
+FEMAPC1      1.      0.      1.
CORD2S         2       0      0.      0.      0.      0.      0.      1.+FEMAPC2
+FEMAPC2      1.      0.      1.
$ FEMAP Property 1 : Untitled
PSHELL         1       1      0.       1      1.       1 0.83333      0.
$ FEMAP Property 2 : Untitled
PSHELL         2       1      0.       1      1.       1 0.83333      0.
$ FEMAP Material 1 : Untitled
MAT1           1                              0.      0.      0.        
GRID           5       0 0.76667     0.5      0.       0        
GRID           7       0    0.85 0.33333      0.       0        
GRID           8       0 0.76667    0.25      0.       0        
GRID           9       0 0.68333    0.25      0.       0        
GRID          10       0 0.68333 0.33333      0.       0        
GRID          11       0 0.68333 0.41667      0.       0        
GRID          12       0 0.76667 0.33333      0.       0        
GRID          13       0 0.76667 0.41667      0.       0        
GRID          14       0     1.2      0.      0.       0        
GRID          15       0 1.11429      0.      0.       0        
GRID          16       0 1.02857      0.      0.       0        
GRID          17       0 0.94286      0.      0.       0        
GRID          18       0 0.85714      0.      0.       0        
GRID          19       0 0.77143      0.      0.       0        
GRID          20       0 0.68571      0.      0.       0        
GRID          22       0     0.60.083333      0.       0        
GRID          25       0    0.85    0.25      0.       0        
GRID          26       0    0.85 0.41667      0.       0        
GRID          27       0  0.9375     0.5      0.       0        
GRID          28       0   1.025     0.5      0.       0        
$ ... 175 like lines cut
CQUAD4         1       2     153     178       9      10                
CQUAD4         2       2     154     153      10      11                
CQUAD4         3       2     155     154      11      60                
CQUAD4         4       2      10       9       8      12                
CQUAD4         5       2      11      10      12      13                
CQUAD4         6       2      60      11      13       5                
CQUAD4         7       2      12       8      25       7                
CQUAD4         8       2      13      12       7      26                
CQUAD4         9       2       5      13      26      62                
CQUAD4        10       1     178     177      43       9                
CQUAD4        11       1     177      22      44      43                
CQUAD4        12       1     175      20      44      22                
CQUAD4        13       1       9      43      45       8                
CQUAD4        14       1      43      44      46      45                
CQUAD4        15       1      20      19      46      44                
CQUAD4        16       1       8      45      41      25                
CQUAD4        17       1      45      46      42      41                
CQUAD4        18       1      19      18      42      46                
CQUAD4        19       1      62      26      36      27                
CQUAD4        20       1      26       7      37      36                
$ ... 148 like lines cut
ENDDATA
