ID C:\Users\Dima\Lame3d2\Mpl,FEMAP
SOL SESTATICS
TIME 10000
CEND
  ECHO = NONE
  DISPLACEMENT(PLOT) = ALL
  SPCFORCE(PLOT) = ALL
  OLOAD(PLOT) = ALL
  FORCE(PLOT,CORNER) = ALL
  STRESS(PLOT,CORNER) = ALL
BEGIN BULK
$ ***************************************************************************
$   Written by : FEMAP
$   Version    : 7.00
$   Translator : MSC/NASTRAN
$   From Model : C:\Users\Dima\Lame3d2\Mpls_all\Exe\Acoustic\Solid\ono_box0.MOD
$   Date       : Sun Mar 11 16:49:42 2007
$ ***************************************************************************
$
PARAM,POST,-1
PARAM,OGEOM,NO
PARAM,AUTOSPC,YES
PARAM,GRDPNT,0
CORD2C         1       0      0.      0.      0.      0.      0.      1.+FEMAPC1
+FEMAPC1      1.      0.      1.
CORD2S         2       0      0.      0.      0.      0.      0.      1.+FEMAPC2
+FEMAPC2      1.      0.      1.
$ FEMAP Property 1 : ONO BOX
PSHELL         1       1      0.       1               1              0.
$ FEMAP Property 2 : INCLUSION
PSHELL         2       1      0.       1               1              0.
$ FEMAP Material 1 : Untitled
MAT1           1                              0.      0.      0.        
GRID          32       0    0.35     0.4     0.0       0        
GRID          35       0     0.3     0.5     0.0       0        
GRID          36       0    0.25     0.5     0.0       0        
GRID          37       0     0.2     0.5     0.0       0        
GRID          38       0    0.15     0.5     0.0       0        
GRID          39       0     0.1     0.5     0.0       0        
GRID          40       0    0.05     0.5     0.0       0        
GRID          41       0      0.     0.5     0.0       0        
GRID          42       0      0.    0.45     0.0       0        
GRID          43       0      0.     0.4     0.0       0        
GRID          44       0      0.    0.35     0.0       0        
GRID          45       0      0.     0.3     0.0       0        
GRID          46       0      0.    0.25     0.0       0        
GRID          47       0      0.     0.2     0.0       0        
GRID          48       0      0.    0.15     0.0       0        
GRID          49       0      0.     0.1     0.0       0        
GRID          50       0      0.    0.05     0.0       0        
GRID          51       0      0.      0.     0.0       0        
GRID          52       0    0.05      0.     0.0       0        
GRID          53       0     0.1      0.     0.0       0        
$ ... 123 like lines cut
CQUAD4        16       1      88      89      91      93                
CQUAD4        17       1      87      88      93      94                
CQUAD4        18       1      83      84      87      94                
CQUAD4        19       1      93      91      92      95                
CQUAD4        20       1      94      93      95      96                
CQUAD4        21       1      82      83      94      96                
CQUAD4        22       1      76      77      82      96                
CQUAD4        23       1      75      76      96      95                
CQUAD4        24       1      74      75      95      92                
CQUAD4        25       1      91      89      90      97                
CQUAD4        26       1      92      91      97      98                
CQUAD4        27       1      73      74      92      98                
CQUAD4        28       1      56      57      73      98                
CQUAD4        29       1      55      56      98      97                
CQUAD4        30       1      54      55      97      90                
CQUAD4        31       1      53      54      90     101                
CQUAD4        32       1      52      53     101     102                
CQUAD4        33       1      50      51      52     102                
CQUAD4        34       1      89      88      99     103                
CQUAD4        35       1     101      90      89     103                
$ ... 100 like lines cut
ENDDATA
