ID C:\Users\Dima\Lame3d2\Mpl,FEMAP
SOL SESTATICS
TIME 10000
CEND
  ECHO = NONE
  DISPLACEMENT(PLOT) = ALL
  SPCFORCE(PLOT) = ALL
  OLOAD(PLOT) = ALL
  FORCE(PLOT,CORNER) = ALL
  STRESS(PLOT,CORNER) = ALL
BEGIN BULK
$ ***************************************************************************
$   Written by : FEMAP
$   Version    : 7.00
$   Translator : MSC/NASTRAN
$   From Model : C:\Users\Dima\Lame3d2\Mpls_all\Exe\Acoustic\Solid\ono_box.MOD
$   Date       : Mon Mar 26 19:51:31 2007
$ ***************************************************************************
$
PARAM,POST,-1
PARAM,OGEOM,NO
PARAM,AUTOSPC,YES
PARAM,GRDPNT,0
CORD2C         1       0      0.      0.      0.      0.      0.      1.+FEMAPC1
+FEMAPC1      1.      0.      1.
CORD2S         2       0      0.      0.      0.      0.      0.      1.+FEMAPC2
+FEMAPC2      1.      0.      1.
$ FEMAP Property 1 : Ono box
PSHELL         1       1      0.       1               1              0.
$ FEMAP Property 2 : Inclusion
PSHELL         2       1      0.       1               1              0.
$ FEMAP Material 1 : Untitled
MAT1           1                              0.      0.      0.        
GRID         355       0 0.29167     0.5     0.0       0        
GRID         356       0 0.23333     0.5     0.0       0        
GRID         357       0   0.175     0.5     0.0       0        
GRID         358       0 0.11667     0.5     0.0       0        
GRID         359       00.058333     0.5     0.0       0        
GRID         360       0      0.     0.5     0.0       0        
GRID         361       0      0.  0.4375     0.0       0        
GRID         362       0      0.   0.375     0.0       0        
GRID         363       0      0.  0.3125     0.0       0        
GRID         364       0      0.    0.25     0.0       0        
GRID         365       0      0.  0.1875     0.0       0        
GRID         366       0      0.   0.125     0.0       0        
GRID         367       0      0.  0.0625     0.0       0        
GRID         368       0      0.      0.     0.0       0        
GRID         369       0    0.06      0.     0.0       0        
GRID         370       0    0.12      0.     0.0       0        
GRID         371       0    0.18      0.     0.0       0        
GRID         372       0    0.24      0.     0.0       0        
GRID         373       0     0.3      0.     0.0       0        
GRID         374       0    0.36      0.     0.0       0        
$ ... 79 like lines cut
CQUAD4       255       1     392     393     397     404                
CQUAD4       256       1     391     392     404     405                
CQUAD4       257       1     390     391     405     406                
CQUAD4       258       1     372     373     390     406                
CQUAD4       259       1     404     397     398     401                
CQUAD4       260       1     405     404     401     402                
CQUAD4       261       1     406     405     402     403                
CQUAD4       262       1     371     372     406     403                
CQUAD4       263       1     370     371     403     409                
CQUAD4       264       1     369     370     409     410                
CQUAD4       265       1     367     368     369     410                
CQUAD4       266       1     409     403     402     407                
CQUAD4       267       1     410     409     407     408                
CQUAD4       268       1     366     367     410     408                
CQUAD4       269       1     401     398     399     411                
CQUAD4       270       1     407     402     401     411                
CQUAD4       271       1     408     407     411     412                
CQUAD4       272       1     365     366     408     412                
CQUAD4       273       1     412     411     399     400                
CQUAD4       274       1     364     365     412     400                
$ ... 60 like lines cut
ENDDATA
