ID C:\Users\Dima\Lame3d2\Mpl,FEMAP
SOL SESTATICS
TIME 10000
CEND
  ECHO = NONE
  DISPLACEMENT(PLOT) = ALL
  SPCFORCE(PLOT) = ALL
  OLOAD(PLOT) = ALL
  FORCE(PLOT,CORNER) = ALL
  STRESS(PLOT,CORNER) = ALL
  LOAD = 200
BEGIN BULK
$ ***************************************************************************
$   Written by : FEMAP
$   Version    : 7.00
$   Translator : MSC/NASTRAN
$   From Model : C:\Users\Dima\Lame3d2\Mpls_all\Exe\Cylinder\Solid\cylinder.MOD
$   Date       : Fri Nov 24 20:22:02 2006
$ ***************************************************************************
$
PARAM,POST,-1
PARAM,OGEOM,NO
PARAM,AUTOSPC,YES
PARAM,GRDPNT,0
CORD2C         1       0      0.      0.      0.      0.      0.      1.+FEMAPC1
+FEMAPC1      1.      0.      1.
CORD2S         2       0      0.      0.      0.      0.      0.      1.+FEMAPC2
+FEMAPC2      1.      0.      1.
$ FEMAP Load Set 100 : Source Vn -1.0 0.0
PLOAD4       100    1325    111.                             468     317
PLOAD4       100    1330    111.                             463     326
PLOAD4       100    1342    111.                             468     448
PLOAD4       100    1343    111.                             407     448
PLOAD4       100    1345    111.                             465     446
PLOAD4       100    1356    111.                             467     448
PLOAD4       100    1447    111.                             467     446
PLOAD4       100    1448    111.                             468     249
PLOAD4       100    1510    111.                             128     249
PLOAD4       100    1515    111.                             246     326
$ FEMAP Load Set 200 : Endwall Absorb 1.0 0.0
PLOAD4       200     665    112.                             101      35
PLOAD4       200     677    112.                             454     424
PLOAD4       200     690    112.                             451     193
PLOAD4       200     707    112.                             148     275
PLOAD4       200     724    112.                             100     422
PLOAD4       200     725    112.                             336      35
PLOAD4       200     726    112.                             452     193
PLOAD4       200     870    112.                             100     422
PLOAD4       200     873    112.                             100     364
PLOAD4       200     876    112.                             454     424
PLOAD4       200     888    112.                              90     151
PLOAD4       200     951    112.                               6     424
PLOAD4       200    1065    112.                             145     175
PLOAD4       200    1134    112.                             452     175
PLOAD4       200    1150    112.                               6     424
PLOAD4       200    1156    112.                              92     193
PLOAD4       200    1183    112.                             339     175
PLOAD4       200    1187    112.                              90     275
PLOAD4       200    1190    112.                              90     275
PLOAD4       200    1295    112.                             290     275
$ ... 12 like lines cut
$ FEMAP Property 1 : Untitled
PSOLID         1       1       0        
$ FEMAP Material 1 : Untitled
MAT1           1                              0.      0.      0.        
GRID           1       0   -0.55      0.     2.5       0        
GRID           2       0-0.49553 0.23864     2.5       0        
GRID           5       0 0.12239 0.53621     2.5       0        
GRID           6       0 0.34292 0.43001     2.5       0        
GRID          11       0    0.55      0.    1.75       0        
GRID          12       0    0.55      0.     1.5       0        
GRID          13       0    0.55      0.    1.25       0        
GRID          14       0    0.55      0.      1.       0        
GRID          15       0    0.55      0.    0.75       0        
GRID          18       0    0.55      0.      0.       0        
GRID          21       0 0.12239 0.53621      0.       0        
GRID          23       0-0.34292 0.43001      0.       0        
GRID          24       0-0.49553 0.23864      0.       0        
GRID          25       0   -0.55      0.      0.       0        
GRID          27       0   -0.55      0.     0.5       0        
GRID          28       0   -0.55      0.    0.75       0        
GRID          29       0   -0.55      0.      1.       0        
GRID          31       0   -0.55      0.     1.5       0        
GRID          32       0   -0.55      0.    1.75       0        
GRID          35       0-0.49553 0.23864    2.25       0        
$ ... 227 like lines cut
CTETRA       665       1     101     336       2      35                        
CTETRA       666       1     101      37     422      36                        
CTETRA       667       1     226      13      12     171                        
CTETRA       668       1     226     345      13     171                        
CTETRA       669       1      66     440      73     437                        
CTETRA       670       1     241     440      71     437                        
CTETRA       671       1      66     434      59     437                        
CTETRA       672       1     435     379      68     377                        
CTETRA       673       1     377     432      56     435                        
CTETRA       674       1     433     377      58     282                        
CTETRA       675       1     433     432     371      56                        
CTETRA       676       1     433      58     371     282                        
CTETRA       677       1     454       5     424     109                        
CTETRA       678       1     274     275     219     211                        
CTETRA       679       1     274     201     275     211                        
CTETRA       680       1     274     294     332     219                        
CTETRA       681       1     274     332     324     201                        
CTETRA       682       1     326     414     213     268                        
CTETRA       683       1     268     195     326     318                        
CTETRA       684       1     325     201     324     193                        
$ ... 832 like lines cut
ENDDATA
