ID C:\Users\Dima\Lame3d2\Mpl,FEMAP
SOL SESTATICS
TIME 10000
CEND
  ECHO = NONE
  DISPLACEMENT(PLOT) = ALL
  SPCFORCE(PLOT) = ALL
  OLOAD(PLOT) = ALL
  FORCE(PLOT,CORNER) = ALL
  STRESS(PLOT,CORNER) = ALL
BEGIN BULK
$ ***************************************************************************
$   Written by : FEMAP
$   Version    : 7.00
$   Translator : MSC/NASTRAN
$   From Model : C:\Users\Dima\Lame3d2\Mpls_all\Exe\Acoustic\Solid\ono_box.MOD
$   Date       : Mon Mar 26 19:49:45 2007
$ ***************************************************************************
$
PARAM,POST,-1
PARAM,OGEOM,NO
PARAM,AUTOSPC,YES
PARAM,GRDPNT,0
CORD2C         1       0      0.      0.      0.      0.      0.      1.+FEMAPC1
+FEMAPC1      1.      0.      1.
CORD2S         2       0      0.      0.      0.      0.      0.      1.+FEMAPC2
+FEMAPC2      1.      0.      1.
$ FEMAP Property 1 : Ono box
PSHELL         1       1      0.       1               1              0.
$ FEMAP Property 2 : Inclusion
PSHELL         2       1      0.       1               1              0.
$ FEMAP Material 1 : Untitled
MAT1           1                              0.      0.      0.        
GRID         307       0  0.2625     0.5     0.0       0        
GRID         308       0   0.175     0.5     0.0       0        
GRID         309       0  0.0875     0.5     0.0       0        
GRID         310       0      0.     0.5     0.0       0        
GRID         311       0      0. 0.41667     0.0       0        
GRID         312       0      0. 0.33333     0.0       0        
GRID         313       0      0.    0.25     0.0       0        
GRID         314       0      0. 0.16667     0.0       0        
GRID         315       0      0.0.083333     0.0       0        
GRID         316       0      0.      0.     0.0       0        
GRID         317       0   0.075      0.     0.0       0        
GRID         318       0    0.15      0.     0.0       0        
GRID         319       0   0.225      0.     0.0       0        
GRID         320       0     0.3      0.     0.0       0        
GRID         321       0   0.375      0.     0.0       0        
GRID         322       0    0.45      0.     0.0       0        
GRID         323       0   0.525      0.     0.0       0        
GRID         324       0     0.6      0.     0.0       0        
GRID         325       0     0.60.083333     0.0       0        
GRID         326       0     0.6 0.16667     0.0       0        
$ ... 37 like lines cut
CQUAD4       221       1     325     326     333     340                
CQUAD4       222       1     323     324     325     340                
CQUAD4       223       1     340     333     334     341                
CQUAD4       224       1     322     323     340     341                
CQUAD4       225       1     341     334     335     339                
CQUAD4       226       1     321     322     341     339                
CQUAD4       227       1     320     321     339     342                
CQUAD4       228       1     319     320     342     343                
CTRIA3       229       1     318     319     343                        
CQUAD4       230       1     317     318     343     344                
CQUAD4       231       1     315     316     317     344                
CQUAD4       232       1     342     339     335     336                
CQUAD4       233       1     343     342     336     337                
CQUAD4       234       1     344     343     337     338                
CQUAD4       235       1     314     315     344     338                
CQUAD4       236       1     313     314     338     348                
CQUAD4       237       1     312     313     348     349                
CQUAD4       238       1     311     312     349     350                
CQUAD4       239       1     309     310     311     350                
CQUAD4       240       1     348     338     337     351                
CQUAD4       241       1     349     348     351     352                
CQUAD4       242       1     350     349     352     353                
CQUAD4       243       1     308     309     350     353                
CQUAD4       244       1     351     337     336     345                
CQUAD4       245       1     352     351     345     346                
CQUAD4       246       1     353     352     346     347                
CQUAD4       247       1     307     308     353     347                
CQUAD4       248       1     333     326     354     365                
CQUAD4       249       1     334     333     365     364                
$ ... 14 like lines cut
ENDDATA
