ID FEMAP,FEMAP
SOL SESTATICS
TIME 10000
CEND
  ECHO = NONE
  DISPLACEMENT(PLOT) = ALL
  SPCFORCE(PLOT) = ALL
  OLOAD(PLOT) = ALL
  FORCE(PLOT,CORNER) = ALL
  STRESS(PLOT,CORNER) = ALL
BEGIN BULK
$ ***************************************************************************
$   Written by : FEMAP
$   Version    : 7.00
$   Translator : MSC/NASTRAN
$   From Model : 
$   Date       : Sun Jan 27 23:09:11 2008
$ ***************************************************************************
$
PARAM,POST,-1
PARAM,OGEOM,NO
PARAM,AUTOSPC,YES
PARAM,GRDPNT,0
CORD2C         1       0      0.      0.      0.      0.      0.      1.+FEMAPC1
+FEMAPC1      1.      0.      1.
CORD2S         2       0      0.      0.      0.      0.      0.      1.+FEMAPC2
+FEMAPC2      1.      0.      1.
$ FEMAP Property 1 : Ono box
PSHELL         1       1      0.       1               1              0.
$ FEMAP Property 2 : Inclusion
PSHELL         2       1      0.       1               1              0.
$ FEMAP Material 1 : Untitled
MAT1           1                              0.      0.      0.        
GRID           2       0     0.6 0.28571     0.0       0        
GRID           3       0     0.6 0.32143     0.0       0        
GRID           4       0     0.6 0.35714     0.0       0        
GRID           5       0     0.6 0.39286     0.0       0        
GRID           6       0     0.6 0.42857     0.0       0        
GRID           7       0     0.6 0.46429     0.0       0        
GRID           8       0     0.6     0.5     0.0       0        
GRID           9       0 0.56429     0.5     0.0       0        
GRID          10       0 0.52857     0.5     0.0       0        
GRID          11       0 0.49286     0.5     0.0       0        
GRID          12       0 0.45714     0.5     0.0       0        
GRID          13       0 0.42143     0.5     0.0       0        
GRID          14       0 0.38571     0.5     0.0       0        
GRID          15       0    0.35     0.5     0.0       0        
GRID          16       0    0.35   0.466     0.0       0        
GRID          19       0    0.35   0.364     0.0       0        
GRID          23       0 0.39939 0.25609     0.0       0        
GRID          24       0    0.43    0.25     0.0       0        
GRID          29       0  0.3853 0.39613     0.0       0        
GRID          30       0 0.42116 0.39519     0.0       0        
$ ... 253 like lines cut
CQUAD4         1       2      31      32      35      40                
CQUAD4         2       2      30      31      40      41                
CQUAD4         3       2      29      30      41      42                
CQUAD4         4       2     100      99      29      42                
CQUAD4         5       2      40      35      36      37                
CQUAD4         6       2      41      40      37      38                
CQUAD4         7       2      42      41      38      39                
CQUAD4         8       2      16     100      42      39                
CQUAD4         9       2      14      15      16      39                
CQUAD4        10       2      13      14      39      38                
CQUAD4        11       2      12      13      38      37                
CQUAD4        12       2      11      12      37      36                
CQUAD4        13       2      43      44      45      46                
CQUAD4        14       2      36      35      43      46                
CQUAD4        15       2      10      11      36      46                
CQUAD4        16       2       9      10      46      45                
CQUAD4        17       2       7       8       9      45                
CQUAD4        18       2       6       7      45      44                
CQUAD4        19       2      43      35      32      33                
CQUAD4        20       2      44      43      33      34                
CQUAD4        21       2       5       6      44      34                
CTRIA3        22       2      95      23      50                        
CQUAD4        23       2      95      50      51      53                
CTRIA3        24       2      97      96      53                        
CQUAD4        25       2      19      97      53      54                
CQUAD4        26       2      29      99      19      54                
CQUAD4        27       2      54      53      51      52                
CQUAD4        28       2      30      29      54      52                
CQUAD4        29       2      92      91      47      56                
CQUAD4        30       2      50      24      92      56                
CQUAD4        31       2      56      47      48      55                
CQUAD4        32       2      51      50      56      55                
CQUAD4        33       2      52      51      55      57                
CQUAD4        34       2      31      30      52      57                
CQUAD4        35       2      57      55      48      49                
CQUAD4        36       2      32      31      57      49                
CQUAD4        37       2      49      48      58      61                
CQUAD4        38       2      33      32      49      61                
CQUAD4        39       2      61      58      59      60                
CQUAD4        40       2      34      33      61      60                
CQUAD4        41       2       4       5      34      60                
CQUAD4        42       2       3       4      60      59                
CQUAD4        43       2      58      48      47      62                
CQUAD4        44       2      59      58      62      63                
$ ... 4 like lines cut
CTRIA3        49       2      23      24      50                        
CTRIA3        50       2      96      95      53                        
CQUAD4        51       1     103     104     126     149                
CQUAD4        52       1      16      15     103     149                
CQUAD4        53       1     149     126     127     148                
CQUAD4        54       1     100      16     149     148                
CQUAD4        55       1     148     127     128     150                
CQUAD4        56       1      99     100     148     150                
CQUAD4        57       1     129     130     147     151                
CQUAD4        58       1     150     128     129     151                
CQUAD4        59       1      19      99     150     151                
CQUAD4        60       1      97      19     151     147                
CQUAD4        61       1     132     133     139     152                
CQUAD4        62       1     131     132     152     153                
CQUAD4        63       1     147     130     131     153                
CQUAD4        64       1      96      97     147     153                
CQUAD4        65       1     153     152     154     156                
CQUAD4        66       1      96     153     156     157                
CQUAD4        67       1     157     156     154     155                
CQUAD4        68       1      95      96     157     155                
CQUAD4        69       1     154     152     139     140                
CQUAD4        70       1     155     154     140     141                
$ ... 173 like lines cut
ENDDATA
