ID C:\Users\Dima\Lame3d2\Mpl,FEMAP
SOL SESTATICS
TIME 10000
CEND
  ECHO = NONE
  DISPLACEMENT(PLOT) = ALL
  SPCFORCE(PLOT) = ALL
  OLOAD(PLOT) = ALL
  FORCE(PLOT,CORNER) = ALL
  STRESS(PLOT,CORNER) = ALL
BEGIN BULK
$ ***************************************************************************
$   Written by : FEMAP
$   Version    : 7.00
$   Translator : MSC/NASTRAN
$   From Model : C:\Users\Dima\Lame3d2\Mpls_all\Exe\Acoustic\Solid\ono_box.MOD
$   Date       : Mon Mar 26 19:54:09 2007
$ ***************************************************************************
$
PARAM,POST,-1
PARAM,OGEOM,NO
PARAM,AUTOSPC,YES
PARAM,GRDPNT,0
CORD2C         1       0      0.      0.      0.      0.      0.      1.+FEMAPC1
+FEMAPC1      1.      0.      1.
CORD2S         2       0      0.      0.      0.      0.      0.      1.+FEMAPC2
+FEMAPC2      1.      0.      1.
$ FEMAP Property 1 : Ono box
PSHELL         1       1      0.       1               1              0.
$ FEMAP Property 2 : Inclusion
PSHELL         2       1      0.       1               1              0.
$ FEMAP Material 1 : Untitled
MAT1           1                              0.      0.      0.        
GRID         438       0 0.29167     0.5     0.0       0        
GRID         439       0 0.23333     0.5     0.0       0        
GRID         440       0   0.175     0.5     0.0       0        
GRID         441       0 0.11667     0.5     0.0       0        
GRID         442       00.058333     0.5     0.0       0        
GRID         443       0      0.     0.5     0.0       0        
GRID         444       0      0. 0.44444     0.0       0        
GRID         445       0      0. 0.38889     0.0       0        
GRID         446       0      0. 0.33333     0.0       0        
GRID         447       0      0. 0.27778     0.0       0        
GRID         448       0      0. 0.22222     0.0       0        
GRID         449       0      0. 0.16667     0.0       0        
GRID         450       0      0. 0.11111     0.0       0        
GRID         451       0      0.0.055556     0.0       0        
GRID         452       0      0.      0.     0.0       0        
GRID         453       00.054545      0.     0.0       0        
GRID         454       0 0.10909      0.     0.0       0        
GRID         455       0 0.16364      0.     0.0       0        
GRID         456       0 0.21818      0.     0.0       0        
GRID         457       0 0.27273      0.     0.0       0        
$ ... 104 like lines cut
CQUAD4       319       1     478     479     484     494                
CQUAD4       320       1     477     478     494     495                
CQUAD4       321       1     476     477     495     496                
CQUAD4       322       1     456     457     476     496                
CQUAD4       323       1     494     484     485     491                
CQUAD4       324       1     495     494     491     492                
CQUAD4       325       1     496     495     492     493                
CQUAD4       326       1     455     456     496     493                
CQUAD4       327       1     491     485     486     488                
CQUAD4       328       1     492     491     488     489                
CQUAD4       329       1     493     492     489     490                
CQUAD4       330       1     454     455     493     490                
CQUAD4       331       1     488     486     487     497                
CQUAD4       332       1     489     488     497     498                
CQUAD4       333       1     490     489     498     499                
CQUAD4       334       1     453     454     490     499                
CQUAD4       335       1     451     452     453     499                
CQUAD4       336       1     450     451     499     498                
CQUAD4       337       1     449     450     498     497                
CQUAD4       338       1     448     449     497     487                
$ ... 53 like lines cut
CTRIA3       392       1     520     519     550                        
CQUAD4       393       1     480     479     520     550                
CQUAD4       394       1     481     480     550     549                
CQUAD4       395       1     482     481     549     474                
CQUAD4       396       1     483     482     474     547                
CQUAD4       397       1     546     438     483     547                
CQUAD4       398       2     554     555     558     559                
CQUAD4       399       2     547     474     554     559                
CQUAD4       400       2     545     546     547     559                
CQUAD4       401       2     544     545     559     558                
CQUAD4       402       2     543     544     558     560                
CQUAD4       403       2     542     543     560     561                
CQUAD4       404       2     540     541     542     561                
CQUAD4       405       2     560     558     555     556                
CQUAD4       406       2     561     560     556     557                
CQUAD4       407       2     539     540     561     557                
CQUAD4       408       2     564     565     566     567                
CQUAD4       409       2     550     551     564     567                
CQUAD4       410       2     549     550     567     566                
CQUAD4       411       2     554     474     549     566                
CQUAD4       412       2     555     554     566     565                
$ ... 9 like lines cut
ENDDATA
