ID FEMAP,FEMAP
SOL SESTATICS
TIME 10000
CEND
  ECHO = NONE
  DISPLACEMENT(PLOT) = ALL
  SPCFORCE(PLOT) = ALL
  OLOAD(PLOT) = ALL
  FORCE(PLOT,CORNER) = ALL
  STRESS(PLOT,CORNER) = ALL
BEGIN BULK
$ ***************************************************************************
$   Written by : FEMAP
$   Version    : 7.00
$   Translator : MSC/NASTRAN
$   From Model : 
$   Date       : Sat Jan 26 19:42:01 2008
$ ***************************************************************************
$
PARAM,POST,-1
PARAM,OGEOM,NO
PARAM,AUTOSPC,YES
PARAM,GRDPNT,0
CORD2C         1       0      0.      0.      0.      0.      0.      1.+FEMAPC1
+FEMAPC1      1.      0.      1.
CORD2S         2       0      0.      0.      0.      0.      0.      1.+FEMAPC2
+FEMAPC2      1.      0.      1.
$ FEMAP Property 1 : Ono box
PSHELL         1       1      0.       1               1              0.
$ FEMAP Property 2 : Inclusion
PSHELL         2       1      0.       1               1              0.
$ FEMAP Material 1 : Untitled
MAT1           1                              0.      0.      0.        
GRID           5       0     1.2 0.41667      0.       0        
GRID           6       0     1.2 0.33333      0.       0        
GRID           7       0     1.2    0.25      0.       0        
GRID           8       0     1.2 0.16667      0.       0        
GRID           9       0     1.20.083333      0.       0        
GRID          10       0     1.2      0.      0.       0        
GRID          11       0   1.125      0.      0.       0        
GRID          12       0    1.05      0.      0.       0        
GRID          13       0   0.975      0.      0.       0        
GRID          14       0     0.9      0.      0.       0        
GRID          15       0   0.825      0.      0.       0        
GRID          16       0    0.75      0.      0.       0        
GRID          17       0   0.675      0.      0.       0        
GRID          20       0     0.6 0.16667      0.       0        
GRID          21       0 0.68129 0.16716      0.       0        
GRID          22       0 0.76137 0.16866      0.       0        
GRID          23       0 0.83755 0.17315      0.       0        
GRID          24       0 0.92589 0.16746      0.       0        
GRID          25       0 1.01862 0.16083      0.       0        
GRID          26       0 1.11078 0.16375      0.       0        
$ ... 179 like lines cut
CQUAD4         1       1      20     325      28      21                
CQUAD4         2       1     324      17      28     325                
CQUAD4         3       1      21      28      29      22                
CQUAD4         4       1      17      16      29      28                
CQUAD4         5       1      22      29      27      23                
CQUAD4         6       1      16      15      27      29                
CQUAD4         7       1      15      14      30      27                
CQUAD4         8       1      14      13      31      30                
CTRIA3         9       1      13      12      31                        
CQUAD4        10       1      12      11      32      31                
CQUAD4        11       1      10       9      32      11                
CQUAD4        12       1      27      30      24      23                
CQUAD4        13       1      30      31      25      24                
CQUAD4        14       1      31      32      26      25                
CQUAD4        15       1       9       8      26      32                
CQUAD4        16       1       8       7      36      26                
CQUAD4        17       1       7       6      37      36                
CQUAD4        18       1       6       5      38      37                
CQUAD4        19       1      61      60      38       5                
CQUAD4        20       1      26      36      39      25                
CQUAD4        21       1      36      37      40      39                
CQUAD4        22       1      37      38      41      40                
CQUAD4        23       1      60      59      41      38                
CQUAD4        24       1      25      39      33      24                
CQUAD4        25       1      39      40      34      33                
CQUAD4        26       1      40      41      35      34                
CQUAD4        27       1      59      58      35      41                
CQUAD4        28       1      20      21      53      42                
CQUAD4        29       1      21      22      52      53                
$ ... 22 like lines cut
CTRIA3        52       1      69      70      88                        
CQUAD4        53       1      68      69      88      89                
CQUAD4        54       1      66      67      68      89                
CQUAD4        55       1      87      84      80      81                
CQUAD4        56       1      88      87      81      82                
CQUAD4        57       1      89      88      82      83                
CQUAD4        58       1      65      66      89      83                
CQUAD4        59       1      64      65      83      93                
CQUAD4        60       1      63      64      93      94                
CQUAD4        61       1      62      63      94      95                
CQUAD4        62       1      60      61      62      95                
CQUAD4        63       1      93      83      82      96                
CQUAD4        64       1      94      93      96      97                
CQUAD4        65       1      95      94      97      98                
CQUAD4        66       1      59      60      95      98                
CQUAD4        67       1      96      82      81      90                
CQUAD4        68       1      97      96      90      91                
CQUAD4        69       1      98      97      91      92                
CQUAD4        70       1      58      59      98      92                
CQUAD4        71       1      78      77      99     110                
CQUAD4        72       1      79      78     110     109                
$ ... 22 like lines cut
CTRIA3        95       1     127     126     145                        
CQUAD4        96       1     126     125     146     145                
CQUAD4        97       1     124     123     146     125                
CQUAD4        98       1     141     144     138     137                
CQUAD4        99       1     144     145     139     138                
CQUAD4       100       1     145     146     140     139                
CQUAD4       101       1     123     122     140     146                
CQUAD4       102       1     122     121     150     140                
CQUAD4       103       1     121     120     151     150                
CQUAD4       104       1     120     119     152     151                
CQUAD4       105       1     310     309     152     119                
CQUAD4       106       1     140     150     153     139                
CQUAD4       107       1     150     151     154     153                
CQUAD4       108       1     151     152     155     154                
CQUAD4       109       1     309     308     155     152                
CQUAD4       110       1     139     153     147     138                
CQUAD4       111       1     153     154     148     147                
CQUAD4       112       1     154     155     149     148                
CQUAD4       113       1     308     307     149     155                
CQUAD4       114       1      77     135     167      99                
CQUAD4       115       1     135     136     166     167                
$ ... 22 like lines cut
CTRIA3       229       1     318     319     343                        
CQUAD4       230       1     317     318     343     344                
CQUAD4       231       1     315     316     317     344                
CQUAD4       232       1     342     339     335     336                
CQUAD4       233       1     343     342     336     337                
CQUAD4       234       1     344     343     337     338                
CQUAD4       235       1     314     315     344     338                
CQUAD4       236       1     313     314     338     348                
CQUAD4       237       1     312     313     348     349                
CQUAD4       238       1     311     312     349     350                
CQUAD4       239       1     309     310     311     350                
CQUAD4       240       1     348     338     337     351                
CQUAD4       241       1     349     348     351     352                
CQUAD4       242       1     350     349     352     353                
CQUAD4       243       1     308     309     350     353                
CQUAD4       244       1     351     337     336     345                
CQUAD4       245       1     352     351     345     346                
CQUAD4       246       1     353     352     346     347                
CQUAD4       247       1     307     308     353     347                
CQUAD4       248       1     333      20      42     365                
CQUAD4       249       1     334     333     365     364                
$ ... 14 like lines cut
ENDDATA
