ID FEMAP,FEMAP
SOL SESTATICS
TIME 10000
CEND
  ECHO = NONE
  DISPLACEMENT(PLOT) = ALL
  SPCFORCE(PLOT) = ALL
  OLOAD(PLOT) = ALL
  FORCE(PLOT,CORNER) = ALL
  STRESS(PLOT,CORNER) = ALL
BEGIN BULK
$ ***************************************************************************
$   Written by : FEMAP
$   Version    : 7.00
$   Translator : MSC/NASTRAN
$   From Model : 
$   Date       : Sun Jan 27 23:16:47 2008
$ ***************************************************************************
$
PARAM,POST,-1
PARAM,OGEOM,NO
PARAM,AUTOSPC,YES
PARAM,GRDPNT,0
CORD2C         1       0      0.      0.      0.      0.      0.      1.+FEMAPC1
+FEMAPC1      1.      0.      1.
CORD2S         2       0      0.      0.      0.      0.      0.      1.+FEMAPC2
+FEMAPC2      1.      0.      1.
$ FEMAP Property 1 : Ono box
PSHELL         1       1      0.       1               1              0.
$ FEMAP Property 2 : Inclusion
PSHELL         2       1      0.       1               1              0.
$ FEMAP Material 1 : Untitled
MAT1           1                              0.      0.      0.        
GRID           1       0      0.      0.     0.0       0        
GRID           2       0    0.03      0.     0.0       0        
GRID           3       0    0.06      0.     0.0       0        
GRID           4       0    0.09      0.     0.0       0        
GRID           5       0    0.12      0.     0.0       0        
GRID           6       0    0.15      0.     0.0       0        
GRID           7       0    0.18      0.     0.0       0        
GRID           8       0    0.21      0.     0.0       0        
GRID           9       0    0.24      0.     0.0       0        
GRID          10       0    0.27      0.     0.0       0        
GRID          11       0     0.3      0.     0.0       0        
GRID          12       0    0.33      0.     0.0       0        
GRID          13       0    0.36      0.     0.0       0        
GRID          14       0    0.39      0.     0.0       0        
GRID          15       0    0.42      0.     0.0       0        
GRID          16       0    0.45      0.     0.0       0        
GRID          17       0    0.48      0.     0.0       0        
GRID          18       0    0.51      0.     0.0       0        
GRID          19       0    0.54      0.     0.0       0        
GRID          20       0    0.57      0.     0.0       0        
$ ... 366 like lines cut
CQUAD4         1       1      47      48      74     104                
CQUAD4         2       1      46      47     104     105                
CQUAD4         3       1     333     332      46     105                
CQUAD4         4       1     104      74      75     106                
CQUAD4         5       1     105     104     106     107                
CQUAD4         6       1     334     333     105     107                
CQUAD4         7       1     106      75      76     102                
CQUAD4         8       1     107     106     102     103                
CQUAD4         9       1     335     334     107     103                
CQUAD4        10       1     102      76      77     108                
CQUAD4        11       1     103     102     108     109                
CQUAD4        12       1      41     335     103     109                
CQUAD4        13       1     108      77      78     110                
CQUAD4        14       1     109     108     110     111                
CQUAD4        15       1      40      41     109     111                
CQUAD4        16       1     110      78      79     100                
CQUAD4        17       1     111     110     100     101                
CQUAD4        18       1     338      40     111     101                
CQUAD4        19       1      90      91     112     115                
CQUAD4        20       1      81      82      90     115                
$ ... 44 like lines cut
CTRIA3        65       1     123     124     149                        
CQUAD4        66       1     122     123     149     150                
CQUAD4        67       1      96      95     122     150                
CQUAD4        68       1     129      97      96     150                
CQUAD4        69       1     130     129     150     149                
CQUAD4        70       1     131     130     149     148                
CQUAD4        71       1     132     131     148     147                
CQUAD4        72       1     147     126     127     152                
CQUAD4        73       1     133     132     147     152                
CQUAD4        74       1     152     127     128     151                
CQUAD4        75       1     134     133     152     151                
CQUAD4        76       1      17      18     134     151                
CQUAD4        77       1      16      17     151     128                
CQUAD4        78       1     155     156     160     165                
CQUAD4        79       1     154     155     165     166                
CQUAD4        80       1     153     154     166     167                
CQUAD4        81       1      93      92     153     167                
CQUAD4        82       1     165     160     161     162                
CQUAD4        83       1     166     165     162     163                
CQUAD4        84       1     167     166     163     164                
CQUAD4        85       1      94      93     167     164                
$ ... 264 like lines cut
ENDDATA
