ID C:\Documents and Settings,FEMAP
SOL SESTATICS
TIME 10000
CEND
  ECHO = NONE
  DISPLACEMENT(PLOT) = ALL
  SPCFORCE(PLOT) = ALL
  OLOAD(PLOT) = ALL
  FORCE(PLOT,CORNER) = ALL
  STRESS(PLOT,CORNER) = ALL
  LOAD = 444
BEGIN BULK
$ ***************************************************************************
$   Written by : FEMAP
$   Version    : 8.00
$   Translator : MSC.Nastran
$   From Model : C:\Documents and Settings\skharchen\Work\FemData\OnoSokki\box_half_sliced_mesh_01n_loads.MOD
$   Date       : Sun Dec 14 17:29:34 2003
$ ***************************************************************************
$
PARAM,POST,-1
PARAM,OGEOM,NO
PARAM,AUTOSPC,YES
PARAM,GRDPNT,0
CORD2C         1       0      0.      0.      0.      0.      0.      1.+FEMAPC1
+FEMAPC1      1.      0.      1.
CORD2S         2       0      0.      0.      0.      0.      0.      1.+FEMAPC2
+FEMAPC2      1.      0.      1.
$ FEMAP Load Set 111 : Srcplane Vn -1.0 0.0
PLOAD4       111    1191    111.                               5     805
PLOAD4       111    1192    111.                             997     800
PLOAD4       111    1193    111.                             834     802
PLOAD4       111    1194    111.                             805    1329
$ FEMAP Load Set 222 : Endwall Absorb 1.0 0.0
PLOAD4       222     941    222.                             172     174
PLOAD4       222     942    222.                             171     435
PLOAD4       222     991    222.                             173     887
PLOAD4       222     992    222.                             174    1314
PLOAD4       222    1065    222.                             525     435
PLOAD4       222    1090    222.                             493     497
PLOAD4       222    1115    222.                             492     498
PLOAD4       222    1140    222.                             497    1314
PLOAD4       222    1165    222.                             498     488
PLOAD4       222    1190    222.                             332     489
PLOAD4       222    1287    222.                            1023     892
PLOAD4       222    1288    222.                             887     919
PLOAD4       222    1289    222.                             807     745
PLOAD4       222    1290    222.                             892     884
PLOAD4       222    1291    222.                             884    1320
PLOAD4       222    1292    222.                             919     488
PLOAD4       222    1341    222.                            1051    1319
PLOAD4       222    1342    222.                            1320     489
PLOAD4       222    1391    222.                            1318    1310
PLOAD4       222    1392    222.                            1319     333
$ FEMAP Load Set 333 : SymmX Rigid
PLOAD4       333     941    333.                             172      87
PLOAD4       333     943    333.                             141      86
PLOAD4       333     945    333.                              39      85
PLOAD4       333     947    333.                              40      84
PLOAD4       333     949    333.                              41      83
PLOAD4       333     951    333.                             137      82
PLOAD4       333     953    333.                             136      81
PLOAD4       333     955    333.                             135      80
PLOAD4       333     957    333.                              45      79
PLOAD4       333     959    333.                              46      78
PLOAD4       333     961    333.                              47      77
PLOAD4       333     963    333.                              48      76
PLOAD4       333     965    333.                             130      75
PLOAD4       333     967    333.                              50      74
PLOAD4       333     969    333.                             128      73
PLOAD4       333     971    333.                              52      72
PLOAD4       333     973    333.                              53      71
PLOAD4       333     975    333.                              54      70
PLOAD4       333     977    333.                             124      69
PLOAD4       333     979    333.                              56      68
$ ... 80 like lines cut
$ FEMAP Load Set 444 : SymmY Rigid
PLOAD4       444    1193    444.                             835     773
PLOAD4       444    1194    444.                             802    1183
PLOAD4       444    1197    444.                             836     774
PLOAD4       444    1198    444.                             773    1184
PLOAD4       444    1201    444.                             769     775
PLOAD4       444    1202    444.                             774     722
PLOAD4       444    1205    444.                             838     776
PLOAD4       444    1206    444.                             775    1073
PLOAD4       444    1209    444.                             767     777
PLOAD4       444    1210    444.                             776     940
PLOAD4       444    1213    444.                             766     778
PLOAD4       444    1214    444.                             777     939
PLOAD4       444    1217    444.                             765     779
PLOAD4       444    1218    444.                             778     938
PLOAD4       444    1221    444.                             764     780
PLOAD4       444    1222    444.                             779    1190
PLOAD4       444    1225    444.                             763     781
PLOAD4       444    1226    444.                             780     728
PLOAD4       444    1229    444.                             762     782
PLOAD4       444    1230    444.                             781     935
$ ... 105 like lines cut
$ FEMAP Property 1 : Untitled
PSOLID         1       1       0        
$ FEMAP Material 1 : Untitled
MAT1           1                              0.      0.      0.        
GRID           5       0     0.6    0.25      0.       0        
GRID           8       0   0.475      0.      0.       0        
GRID           9       0   0.475   0.125      0.       0        
GRID          12       0     0.6    0.25     0.2       0        
GRID          17       0     0.6    0.25     0.7       0        
GRID          20       0     0.6    0.25      1.       0        
GRID          26       0     0.6    0.25     1.6       0        
GRID          33       0     0.6    0.25     2.3       0        
GRID          39       0     0.6      0.     2.3       0        
GRID          40       0     0.6      0.     2.2       0        
GRID          41       0     0.6      0.     2.1       0        
GRID          45       0     0.6      0.     1.7       0        
GRID          46       0     0.6      0.     1.6       0        
GRID          47       0     0.6      0.     1.5       0        
GRID          48       0     0.6      0.     1.4       0        
GRID          50       0     0.6      0.     1.2       0        
GRID          52       0     0.6      0.      1.       0        
GRID          53       0     0.6      0.     0.9       0        
GRID          54       0     0.6      0.     0.8       0        
GRID          56       0     0.6      0.     0.6       0        
$ ... 760 like lines cut
CHEXA        941       1     172     141     142     171     173      87+EL   Q5
+EL   Q5    1437     174                                                        
CHEXA        942       1     171     142     437     524     174    1437+EL   Q6
+EL   Q6     229     435                                                        
CHEXA        943       1     141      39     143     142      87      86+EL   Q7
+EL   Q7    1438    1437                                                        
CHEXA        944       1     142     143     522     437    1437    1438+EL   Q8
+EL   Q8     485     229                                                        
CHEXA        945       1      39      40     144     143      86      85+EL   Q9
+EL   Q9    1439    1438                                                        
CHEXA        946       1     143     144     521     522    1438    1439+EL   QA
+EL   QA     484     485                                                        
CHEXA        947       1      40      41     145     144      85      84+EL   QB
+EL   QB    1440    1439                                                        
CHEXA        948       1     144     145      94     521    1439    1440+EL   QC
+EL   QC     232     484                                                        
CHEXA        949       1      41     137     146     145      84      83+EL   QD
+EL   QD    1441    1440                                                        
CHEXA        950       1     145     146     441      94    1440    1441+EL   QE
+EL   QE     482     232                                                        
CHEXA        951       1     137     136     147     146      83      82+EL   QF
+EL   QF    1442    1441                                                        
CHEXA        952       1     146     147      96     441    1441    1442+EL   QG
+EL   QG     234     482                                                        
CHEXA        953       1     136     135     148     147      82      81+EL   QH
+EL   QH    1443    1442                                                        
CHEXA        954       1     147     148     517      96    1442    1443+EL   QI
+EL   QI     480     234                                                        
CHEXA        955       1     135      45     149     148      81      80+EL   QJ
+EL   QJ    1444    1443                                                        
CHEXA        956       1     148     149     516     517    1443    1444+EL   QK
+EL   QK     479     480                                                        
CHEXA        957       1      45      46     150     149      80      79+EL   QL
+EL   QL    1445    1444                                                        
CHEXA        958       1     149     150     445     516    1444    1445+EL   QM
+EL   QM     237     479                                                        
CHEXA        959       1      46      47     151     150      79      78+EL   QN
+EL   QN    1446    1445                                                        
CHEXA        960       1     150     151     514     445    1445    1446+EL   QO
+EL   QO     238     237                                                        
CHEXA        961       1      47      48     152     151      78      77+EL   QP
+EL   QP    1447    1446                                                        
CHEXA        962       1     151     152     447     514    1446    1447+EL   QQ
+EL   QQ     476     238                                                        
CHEXA        963       1      48     130     153     152      77      76+EL   QR
+EL   QR    1448    1447                                                        
CHEXA        964       1     152     153     512     447    1447    1448+EL   QS
+EL   QS     240     476                                                        
CHEXA        965       1     130      50     154     153      76      75+EL   QT
+EL   QT    1449    1448                                                        
CHEXA        966       1     153     154     449     512    1448    1449+EL   QU
+EL   QU     474     240                                                        
CHEXA        967       1      50     128     155     154      75      74+EL   QV
+EL   QV    1450    1449                                                        
CHEXA        968       1     154     155     104     449    1449    1450+EL   QW
+EL   QW     473     474                                                        
CHEXA        969       1     128      52     156     155      74      73+EL   QX
+EL   QX    1451    1450                                                        
CHEXA        970       1     155     156     509     104    1450    1451+EL   QY
+EL   QY     243     473                                                        
CHEXA        971       1      52      53     157     156      73      72+EL   QZ
+EL   QZ    1452    1451                                                        
CHEXA        972       1     156     157     213     509    1451    1452+EL   R0
+EL   R0     471     243                                                        
CHEXA        973       1      53      54     158     157      72      71+EL   R1
+EL   R1    1453    1452                                                        
CHEXA        974       1     157     158     212     213    1452    1453+EL   R2
+EL   R2     245     471                                                        
CHEXA        975       1      54     124     159     158      71      70+EL   R3
+EL   R3    1454    1453                                                        
CHEXA        976       1     158     159     108     212    1453    1454+EL   R4
+EL   R4     246     245                                                        
CHEXA        977       1     124      56     160     159      70      69+EL   R5
+EL   R5    1455    1454                                                        
CHEXA        978       1     159     160     455     108    1454    1455+EL   R6
+EL   R6     247     246                                                        
CHEXA        979       1      56      57     161     160      69      68+EL   R7
+EL   R7    1456    1455                                                        
CHEXA        980       1     160     161     456     455    1455    1456+EL   R8
+EL   R8     467     247                                                        
CHEXA        981       1      57      58     162     161      68      67+EL   R9
+EL   R9    1457    1456                                                        
CHEXA        982       1     161     162     457     456    1456    1457+EL   RA
+EL   RA     466     467                                                        
CHEXA        983       1      58     120     163     162      67      66+EL   RB
+EL   RB    1458    1457                                                        
CHEXA        984       1     162     163     207     457    1457    1458+EL   RC
+EL   RC     250     466                                                        
CHEXA        985       1     120     119     164     163      66      65+EL   RD
+EL   RD    1459    1458                                                        
CHEXA        986       1     163     164     113     207    1458    1459+EL   RE
+EL   RE     251     250                                                        
CHEXA        987       1     119      61     165     164      65      64+EL   RF
+EL   RF    1460    1459                                                        
CHEXA        988       1     164     165     114     113    1459    1460+EL   RG
+EL   RG     463     251                                                        
CHEXA        989       1      61      62       8     165      64      63+EL   RH
+EL   RH       9    1460                                                        
CHEXA        990       1     165       8     204     114    1460       9+EL   RI
+EL   RI     609     463                                                        
CHEXA        991       1     173      87    1437     174    1023     281+EL   RJ
+EL   RJ    1025     887                                                        
CHEXA        992       1     174    1437     229     435     887    1025+EL   RK
+EL   RK     619    1314                                                        
CHEXA        993       1      87      86    1438    1437     281      33+EL   RL
+EL   RL     329    1025                                                        
CHEXA        994       1    1437    1438     485     229    1025     329+EL   RM
+EL   RM     620     619                                                        
CHEXA        995       1      86      85    1439    1438      33    1020+EL   RN
+EL   RN    1027     329                                                        
CHEXA        996       1    1438    1439     484     485     329    1027+EL   RO
+EL   RO     915     620                                                        
CHEXA        997       1      85      84    1440    1439    1020     812+EL   RP
+EL   RP     327    1027                                                        
CHEXA        998       1    1439    1440     232     484    1027     327+EL   RQ
+EL   RQ     430     915                                                        
CHEXA        999       1      84      83    1441    1440     812    1018+EL   RR
+EL   RR     326     327                                                        
CHEXA       1000       1    1440    1441     482     232     327     326+EL   RS
+EL   RS     976     430                                                        
CHEXA       1001       1      83      82    1442    1441    1018    1017+EL   RT
+EL   RT     325     326                                                        
CHEXA       1002       1    1441    1442     234     482     326     325+EL   RU
+EL   RU     977     976                                                        
CHEXA       1003       1      82      81    1443    1442    1017     287+EL   RV
+EL   RV     324     325                                                        
CHEXA       1004       1    1442    1443     480     234     325     324+EL   RW
+EL   RW     978     977                                                        
CHEXA       1005       1      81      80    1444    1443     287     816+EL   RX
+EL   RX    1032     324                                                        
CHEXA       1006       1    1443    1444     479     480     324    1032+EL   RY
+EL   RY    1163     978                                                        
CHEXA       1007       1      80      79    1445    1444     816      26+EL   RZ
+EL   RZ     322    1032                                                        
CHEXA       1008       1    1444    1445     237     479    1032     322+EL   S0
+EL   S0     627    1163                                                        
CHEXA       1009       1      79      78    1446    1445      26     290+EL   S1
+EL   S1    1034     322                                                        
CHEXA       1010       1    1445    1446     238     237     322    1034+EL   S2
+EL   S2     981     627                                                        
CHEXA       1011       1      78      77    1447    1446     290    1012+EL   S3
+EL   S3     320    1034                                                        
CHEXA       1012       1    1446    1447     476     238    1034     320+EL   S4
+EL   S4     423     981                                                        
CHEXA       1013       1      77      76    1448    1447    1012    1011+EL   S5
+EL   S5    1036     320                                                        
CHEXA       1014       1    1447    1448     240     476     320    1036+EL   S6
+EL   S6     422     423                                                        
CHEXA       1015       1      76      75    1449    1448    1011     821+EL   S7
+EL   S7     318    1036                                                        
CHEXA       1016       1    1448    1449     474     240    1036     318+EL   S8
+EL   S8     190     422                                                        
CHEXA       1017       1      75      74    1450    1449     821    1009+EL   S9
+EL   S9     317     318                                                        
CHEXA       1018       1    1449    1450     473     474     318     317+EL   SA
+EL   SA     985     190                                                        
CHEXA       1019       1      74      73    1451    1450    1009      20+EL   SB
+EL   SB    1039     317                                                        
CHEXA       1020       1    1450    1451     243     473     317    1039+EL   SC
+EL   SC     263     985                                                        
CHEXA       1021       1      73      72    1452    1451      20     824+EL   SD
+EL   SD     315    1039                                                        
CHEXA       1022       1    1451    1452     471     243    1039     315+EL   SE
+EL   SE    1171     263                                                        
CHEXA       1023       1      72      71    1453    1452     824     825+EL   SF
+EL   SF     314     315                                                        
CHEXA       1024       1    1452    1453     245     471     315     314+EL   SG
+EL   SG    1372    1171                                                        
CHEXA       1025       1      71      70    1454    1453     825      17+EL   SH
+EL   SH     313     314                                                        
CHEXA       1026       1    1453    1454     246     245     314     313+EL   SI
+EL   SI     989    1372                                                        
CHEXA       1027       1      70      69    1455    1454      17     827+EL   SJ
+EL   SJ    1043     313                                                        
CHEXA       1028       1    1454    1455     247     246     313    1043+EL   SK
+EL   SK     990     989                                                        
CHEXA       1029       1      69      68    1456    1455     827    1003+EL   SL
+EL   SL     311    1043                                                        
CHEXA       1030       1    1455    1456     467     247    1043     311+EL   SM
+EL   SM    1369     990                                                        
CHEXA       1031       1      68      67    1457    1456    1003    1002+EL   SN
+EL   SN     310     311                                                        
CHEXA       1032       1    1456    1457     466     467     311     310+EL   SO
+EL   SO    1176    1369                                                        
CHEXA       1033       1      67      66    1458    1457    1002     302+EL   SP
+EL   SP    1046     310                                                        
CHEXA       1034       1    1457    1458     250     466     310    1046+EL   SQ
+EL   SQ     993    1176                                                        
CHEXA       1035       1      66      65    1459    1458     302      12+EL   SR
+EL   SR     308    1046                                                        
CHEXA       1036       1    1458    1459     251     250    1046     308+EL   SS
+EL   SS     641     993                                                        
CHEXA       1037       1      65      64    1460    1459      12     999+EL   ST
+EL   ST    1048     308                                                        
CHEXA       1038       1    1459    1460     463     251     308    1048+EL   SU
+EL   SU     254     641                                                        
CHEXA       1039       1      64      63       9    1460     999       5+EL   SV
+EL   SV     997    1048                                                        
CHEXA       1040       1    1460       9     609     463    1048     997+EL   SW
+EL   SW     893     254                                                        
CHEXA       1041       1     204     611     555     114     609     614+EL   SX
+EL   SX    1461     463                                                        
CHEXA       1042       1     114     555     556     113     463    1461+EL   SY
+EL   SY    1462     251                                                        
CHEXA       1043       1     113     556     557     207     251    1462+EL   SZ
+EL   SZ    1463     250                                                        
CHEXA       1044       1     207     557     558     457     250    1463+EL   T0
+EL   T0    1464     466                                                        
CHEXA       1045       1     457     558     559     456     466    1464+EL   T1
+EL   T1    1465     467                                                        
CHEXA       1046       1     456     559     560     455     467    1465+EL   T2
+EL   T2    1466     247                                                        
CHEXA       1047       1     455     560     561     108     247    1466+EL   T3
+EL   T3    1467     246                                                        
CHEXA       1048       1     108     561     562     212     246    1467+EL   T4
+EL   T4    1468     245                                                        
CHEXA       1049       1     212     562     563     213     245    1468+EL   T5
+EL   T5    1469     471                                                        
CHEXA       1050       1     213     563     564     509     471    1469+EL   T6
+EL   T6    1470     243                                                        
CHEXA       1051       1     509     564     565     104     243    1470+EL   T7
+EL   T7    1471     473                                                        
CHEXA       1052       1     104     565     566     449     473    1471+EL   T8
+EL   T8    1472     474                                                        
CHEXA       1053       1     449     566     567     512     474    1472+EL   T9
+EL   T9    1473     240                                                        
CHEXA       1054       1     512     567     568     447     240    1473+EL   TA
+EL   TA    1474     476                                                        
CHEXA       1055       1     447     568     569     514     476    1474+EL   TB
+EL   TB    1475     238                                                        
CHEXA       1056       1     514     569     570     445     238    1475+EL   TC
+EL   TC    1476     237                                                        
CHEXA       1057       1     445     570     571     516     237    1476+EL   TD
+EL   TD    1477     479                                                        
CHEXA       1058       1     516     571     572     517     479    1477+EL   TE
+EL   TE    1478     480                                                        
CHEXA       1059       1     517     572     573      96     480    1478+EL   TF
+EL   TF    1479     234                                                        
CHEXA       1060       1      96     573     574     441     234    1479+EL   TG
+EL   TG    1480     482                                                        
CHEXA       1061       1     441     574     575      94     482    1480+EL   TH
+EL   TH    1481     232                                                        
CHEXA       1062       1      94     575     576     521     232    1481+EL   TI
+EL   TI    1482     484                                                        
CHEXA       1063       1     521     576     577     522     484    1482+EL   TJ
+EL   TJ    1483     485                                                        
CHEXA       1064       1     522     577     578     437     485    1483+EL   TK
+EL   TK    1484     229                                                        
CHEXA       1065       1     437     578     525     524     229    1484+EL   TL
+EL   TL     497     435                                                        
CHEXA       1066       1     611     553     579     555     614     613+EL   TM
+EL   TM    1485    1461                                                        
CHEXA       1067       1     555     579     580     556    1461    1485+EL   TN
+EL   TN    1486    1462                                                        
CHEXA       1068       1     556     580     581     557    1462    1486+EL   TO
+EL   TO    1487    1463                                                        
CHEXA       1069       1     557     581     582     558    1463    1487+EL   TP
+EL   TP    1488    1464                                                        
CHEXA       1070       1     558     582     583     559    1464    1488+EL   TQ
+EL   TQ    1489    1465                                                        
CHEXA       1071       1     559     583     584     560    1465    1489+EL   TR
+EL   TR    1490    1466                                                        
CHEXA       1072       1     560     584     585     561    1466    1490+EL   TS
+EL   TS    1491    1467                                                        
CHEXA       1073       1     561     585     586     562    1467    1491+EL   TT
+EL   TT    1492    1468                                                        
CHEXA       1074       1     562     586     587     563    1468    1492+EL   TU
+EL   TU    1493    1469                                                        
CHEXA       1075       1     563     587     588     564    1469    1493+EL   TV
+EL   TV    1494    1470                                                        
CHEXA       1076       1     564     588     589     565    1470    1494+EL   TW
+EL   TW    1495    1471                                                        
CHEXA       1077       1     565     589     590     566    1471    1495+EL   TX
+EL   TX    1496    1472                                                        
CHEXA       1078       1     566     590     591     567    1472    1496+EL   TY
+EL   TY    1497    1473                                                        
CHEXA       1079       1     567     591     592     568    1473    1497+EL   TZ
+EL   TZ    1498    1474                                                        
CHEXA       1080       1     568     592     593     569    1474    1498+EL   U0
+EL   U0    1499    1475                                                        
CHEXA       1081       1     569     593     594     570    1475    1499+EL   U1
+EL   U1    1500    1476                                                        
CHEXA       1082       1     570     594     595     571    1476    1500+EL   U2
+EL   U2    1501    1477                                                        
CHEXA       1083       1     571     595     596     572    1477    1501+EL   U3
+EL   U3    1502    1478                                                        
CHEXA       1084       1     572     596     597     573    1478    1502+EL   U4
+EL   U4    1503    1479                                                        
CHEXA       1085       1     573     597     598     574    1479    1503+EL   U5
+EL   U5    1504    1480                                                        
CHEXA       1086       1     574     598     599     575    1480    1504+EL   U6
+EL   U6    1505    1481                                                        
CHEXA       1087       1     575     599     600     576    1481    1505+EL   U7
+EL   U7    1506    1482                                                        
CHEXA       1088       1     576     600     601     577    1482    1506+EL   U8
+EL   U8    1507    1483                                                        
CHEXA       1089       1     577     601     602     578    1483    1507+EL   U9
+EL   U9    1508    1484                                                        
CHEXA       1090       1     578     602     493     525    1484    1508+EL   UA
+EL   UA     498     497                                                        
CHEXA       1091       1     553     552     361     579     613     359+EL   UB
+EL   UB     408    1485                                                        
CHEXA       1092       1     579     361     362     580    1485     408+EL   UC
+EL   UC     407    1486                                                        
CHEXA       1093       1     580     362     549     581    1486     407+EL   UD
+EL   UD     406    1487                                                        
CHEXA       1094       1     581     549     364     582    1487     406+EL   UE
+EL   UE     405    1488                                                        
CHEXA       1095       1     582     364     547     583    1488     405+EL   UF
+EL   UF     404    1489                                                        
CHEXA       1096       1     583     547     546     584    1489     404+EL   UG
+EL   UG     403    1490                                                        
CHEXA       1097       1     584     546     545     585    1490     403+EL   UH
+EL   UH     402    1491                                                        
CHEXA       1098       1     585     545     544     586    1491     402+EL   UI
+EL   UI     401    1492                                                        
CHEXA       1099       1     586     544     543     587    1492     401+EL   UJ
+EL   UJ     400    1493                                                        
CHEXA       1100       1     587     543     542     588    1493     400+EL   UK
+EL   UK     399    1494                                                        
CHEXA       1101       1     588     542     371     589    1494     399+EL   UL
+EL   UL     398    1495                                                        
CHEXA       1102       1     589     371     540     590    1495     398+EL   UM
+EL   UM     397    1496                                                        
CHEXA       1103       1     590     540     539     591    1496     397+EL   UN
+EL   UN     396    1497                                                        
CHEXA       1104       1     591     539     374     592    1497     396+EL   UO
+EL   UO     395    1498                                                        
CHEXA       1105       1     592     374     375     593    1498     395+EL   UP
+EL   UP     394    1499                                                        
CHEXA       1106       1     593     375     376     594    1499     394+EL   UQ
+EL   UQ     393    1500                                                        
CHEXA       1107       1     594     376     377     595    1500     393+EL   UR
+EL   UR     392    1501                                                        
CHEXA       1108       1     595     377     534     596    1501     392+EL   US
+EL   US     391    1502                                                        
CHEXA       1109       1     596     534     533     597    1502     391+EL   UT
+EL   UT     390    1503                                                        
CHEXA       1110       1     597     533     532     598    1503     390+EL   UU
+EL   UU     389    1504                                                        
CHEXA       1111       1     598     532     531     599    1504     389+EL   UV
+EL   UV     388    1505                                                        
CHEXA       1112       1     599     531     530     600    1505     388+EL   UW
+EL   UW     387    1506                                                        
CHEXA       1113       1     600     530     529     601    1506     387+EL   UX
+EL   UX     386    1507                                                        
CHEXA       1114       1     601     529     384     602    1507     386+EL   UY
+EL   UY     385    1508                                                        
CHEXA       1115       1     602     384     492     493    1508     385+EL   UZ
+EL   UZ     332     498                                                        
CHEXA       1116       1     609     614    1461     463     893     644+EL   V0
+EL   V0    1435     254                                                        
CHEXA       1117       1     463    1461    1462     251     254    1435+EL   V1
+EL   V1     716     641                                                        
CHEXA       1118       1     251    1462    1463     250     641     716+EL   V2
+EL   V2    1431     993                                                        
CHEXA       1119       1     250    1463    1464     466     993    1431+EL   V3
+EL   V3    1429    1176                                                        
CHEXA       1120       1     466    1464    1465     467    1176    1429+EL   V4
+EL   V4    1427    1369                                                        
CHEXA       1121       1     467    1465    1466     247    1369    1427+EL   V5
+EL   V5    1425     990                                                        
CHEXA       1122       1     247    1466    1467     246     990    1425+EL   V6
+EL   V6    1423     989                                                        
CHEXA       1123       1     246    1467    1468     245     989    1423+EL   V7
+EL   V7    1421    1372                                                        
CHEXA       1124       1     245    1468    1469     471    1372    1421+EL   V8
+EL   V8     702    1171                                                        
CHEXA       1125       1     471    1469    1470     243    1171     702+EL   V9
+EL   V9    1417     263                                                        
CHEXA       1126       1     243    1470    1471     473     263    1417+EL   VA
+EL   VA     698     985                                                        
CHEXA       1127       1     473    1471    1472     474     985     698+EL   VB
+EL   VB    1413     190                                                        
CHEXA       1128       1     474    1472    1473     240     190    1413+EL   VC
+EL   VC    1411     422                                                        
CHEXA       1129       1     240    1473    1474     476     422    1411+EL   VD
+EL   VD    1409     423                                                        
CHEXA       1130       1     476    1474    1475     238     423    1409+EL   VE
+EL   VE    1407     981                                                        
CHEXA       1131       1     238    1475    1476     237     981    1407+EL   VF
+EL   VF     688     627                                                        
CHEXA       1132       1     237    1476    1477     479     627     688+EL   VG
+EL   VG     686    1163                                                        
CHEXA       1133       1     479    1477    1478     480    1163     686+EL   VH
+EL   VH     684     978                                                        
CHEXA       1134       1     480    1478    1479     234     978     684+EL   VI
+EL   VI     682     977                                                        
CHEXA       1135       1     234    1479    1480     482     977     682+EL   VJ
+EL   VJ    1397     976                                                        
CHEXA       1136       1     482    1480    1481     232     976    1397+EL   VK
+EL   VK    1395     430                                                        
CHEXA       1137       1     232    1481    1482     484     430    1395+EL   VL
+EL   VL     676     915                                                        
CHEXA       1138       1     484    1482    1483     485     915     676+EL   VM
+EL   VM    1391     620                                                        
CHEXA       1139       1     485    1483    1484     229     620    1391+EL   VN
+EL   VN     672     619                                                        
CHEXA       1140       1     229    1484     497     435     619     672+EL   VO
+EL   VO     488    1314                                                        
CHEXA       1141       1     614     613    1485    1461     644     645+EL   VP
+EL   VP    1436    1435                                                        
CHEXA       1142       1    1461    1485    1486    1462    1435    1436+EL   VQ
+EL   VQ     715     716                                                        
CHEXA       1143       1    1462    1486    1487    1463     716     715+EL   VR
+EL   VR    1432    1431                                                        
CHEXA       1144       1    1463    1487    1488    1464    1431    1432+EL   VS
+EL   VS     711    1429                                                        
CHEXA       1145       1    1464    1488    1489    1465    1429     711+EL   VT
+EL   VT     709    1427                                                        
CHEXA       1146       1    1465    1489    1490    1466    1427     709+EL   VU
+EL   VU    1426    1425                                                        
CHEXA       1147       1    1466    1490    1491    1467    1425    1426+EL   VV
+EL   VV    1424    1423                                                        
CHEXA       1148       1    1467    1491    1492    1468    1423    1424+EL   VW
+EL   VW     703    1421                                                        
CHEXA       1149       1    1468    1492    1493    1469    1421     703+EL   VX
+EL   VX    1420     702                                                        
CHEXA       1150       1    1469    1493    1494    1470     702    1420+EL   VY
+EL   VY    1418    1417                                                        
CHEXA       1151       1    1470    1494    1495    1471    1417    1418+EL   VZ
+EL   VZ    1416     698                                                        
CHEXA       1152       1    1471    1495    1496    1472     698    1416+EL   W0
+EL   W0     695    1413                                                        
CHEXA       1153       1    1472    1496    1497    1473    1413     695+EL   W1
+EL   W1     693    1411                                                        
CHEXA       1154       1    1473    1497    1498    1474    1411     693+EL   W2
+EL   W2     691    1409                                                        
CHEXA       1155       1    1474    1498    1499    1475    1409     691+EL   W3
+EL   W3    1408    1407                                                        
CHEXA       1156       1    1475    1499    1500    1476    1407    1408+EL   W4
+EL   W4     687     688                                                        
CHEXA       1157       1    1476    1500    1501    1477     688     687+EL   W5
+EL   W5    1404     686                                                        
CHEXA       1158       1    1477    1501    1502    1478     686    1404+EL   W6
+EL   W6    1402     684                                                        
CHEXA       1159       1    1478    1502    1503    1479     684    1402+EL   W7
+EL   W7     681     682                                                        
CHEXA       1160       1    1479    1503    1504    1480     682     681+EL   W8
+EL   W8     679    1397                                                        
CHEXA       1161       1    1480    1504    1505    1481    1397     679+EL   W9
+EL   W9     677    1395                                                        
CHEXA       1162       1    1481    1505    1506    1482    1395     677+EL   WA
+EL   WA     675     676                                                        
CHEXA       1163       1    1482    1506    1507    1483     676     675+EL   WB
+EL   WB     673    1391                                                        
CHEXA       1164       1    1483    1507    1508    1484    1391     673+EL   WC
+EL   WC    1390     672                                                        
CHEXA       1165       1    1484    1508     498     497     672    1390+EL   WD
+EL   WD     489     488                                                        
CHEXA       1166       1     613     359     408    1485     645     605+EL   WE
+EL   WE     357    1436                                                        
CHEXA       1167       1    1485     408     407    1486    1436     357+EL   WF
+EL   WF    1359     715                                                        
CHEXA       1168       1    1486     407     406    1487     715    1359+EL   WG
+EL   WG    1358    1432                                                        
CHEXA       1169       1    1487     406     405    1488    1432    1358+EL   WH
+EL   WH     354     711                                                        
CHEXA       1170       1    1488     405     404    1489     711     354+EL   WI
+EL   WI     651     709                                                        
CHEXA       1171       1    1489     404     403    1490     709     651+EL   WJ
+EL   WJ     352    1426                                                        
CHEXA       1172       1    1490     403     402    1491    1426     352+EL   WK
+EL   WK    1238    1424                                                        
CHEXA       1173       1    1491     402     401    1492    1424    1238+EL   WL
+EL   WL    1239     703                                                        
CHEXA       1174       1    1492     401     400    1493     703    1239+EL   WM
+EL   WM     655    1420                                                        
CHEXA       1175       1    1493     400     399    1494    1420     655+EL   WN
+EL   WN     348    1418                                                        
CHEXA       1176       1    1494     399     398    1495    1418     348+EL   WO
+EL   WO    1350    1416                                                        
CHEXA       1177       1    1495     398     397    1496    1416    1350+EL   WP
+EL   WP     346     695                                                        
CHEXA       1178       1    1496     397     396    1497     695     346+EL   WQ
+EL   WQ     659     693                                                        
CHEXA       1179       1    1497     396     395    1498     693     659+EL   WR
+EL   WR    1347     691                                                        
CHEXA       1180       1    1498     395     394    1499     691    1347+EL   WS
+EL   WS     343    1408                                                        
CHEXA       1181       1    1499     394     393    1500    1408     343+EL   WT
+EL   WT    1247     687                                                        
CHEXA       1182       1    1500     393     392    1501     687    1247+EL   WU
+EL   WU     663    1404                                                        
CHEXA       1183       1    1501     392     391    1502    1404     663+EL   WV
+EL   WV    1343    1402                                                        
CHEXA       1184       1    1502     391     390    1503    1402    1343+EL   WW
+EL   WW    1250     681                                                        
CHEXA       1185       1    1503     390     389    1504     681    1250+EL   WX
+EL   WX     666     679                                                        
CHEXA       1186       1    1504     389     388    1505     679     666+EL   WY
+EL   WY     667     677                                                        
CHEXA       1187       1    1505     388     387    1506     677     667+EL   WZ
+EL   WZ    1253     675                                                        
CHEXA       1188       1    1506     387     386    1507     675    1253+EL   X0
+EL   X0     669     673                                                        
CHEXA       1189       1    1507     386     385    1508     673     669+EL   X1
+EL   X1    1255    1390                                                        
CHEXA       1190       1    1508     385     332     498    1390    1255+EL   X2
+EL   X2     333     489                                                        
CHEXA       1191       1       5     834     805     997     999     883+EL   X3
+EL   X3    1509    1048                                                        
CHEXA       1192       1     997     805     800     893    1048    1509+EL   X4
+EL   X4     947     254                                                        
CHEXA       1193       1     834     835     802     805     883     836+EL   X5
+EL   X5     773    1509                                                        
CHEXA       1194       1     805     802    1329     800    1509     773+EL   X6
+EL   X6    1183     947                                                        
CHEXA       1195       1     999     883    1509    1048      12     882+EL   X7
+EL   X7    1510     308                                                        
CHEXA       1196       1    1048    1509     947     254     308    1510+EL   X8
+EL   X8    1229     641                                                        
CHEXA       1197       1     883     836     773    1509     882     769+EL   X9
+EL   X9     774    1510                                                        
CHEXA       1198       1    1509     773    1183     947    1510     774+EL   XA
+EL   XA    1184    1229                                                        
CHEXA       1199       1      12     882    1510     308     302     881+EL   XB
+EL   XB    1511    1046                                                        
CHEXA       1200       1     308    1510    1229     641    1046    1511+EL   XC
+EL   XC     949     993                                                        
CHEXA       1201       1     882     769     774    1510     881     838+EL   XD
+EL   XD     775    1511                                                        
CHEXA       1202       1    1510     774    1184    1229    1511     775+EL   XE
+EL   XE     722     949                                                        
CHEXA       1203       1     302     881    1511    1046    1002     880+EL   XF
+EL   XF    1512     310                                                        
CHEXA       1204       1    1046    1511     949     993     310    1512+EL   XG
+EL   XG     950    1176                                                        
CHEXA       1205       1     881     838     775    1511     880     767+EL   XH
+EL   XH     776    1512                                                        
CHEXA       1206       1    1511     775     722     949    1512     776+EL   XI
+EL   XI    1073     950                                                        
CHEXA       1207       1    1002     880    1512     310    1003     879+EL   XJ
+EL   XJ    1513     311                                                        
CHEXA       1208       1     310    1512     950    1176     311    1513+EL   XK
+EL   XK     951    1369                                                        
CHEXA       1209       1     880     767     776    1512     879     766+EL   XL
+EL   XL     777    1513                                                        
CHEXA       1210       1    1512     776    1073     950    1513     777+EL   XM
+EL   XM     940     951                                                        
CHEXA       1211       1    1003     879    1513     311     827     878+EL   XN
+EL   XN    1514    1043                                                        
CHEXA       1212       1     311    1513     951    1369    1043    1514+EL   XO
+EL   XO    1225     990                                                        
CHEXA       1213       1     879     766     777    1513     878     765+EL   XP
+EL   XP     778    1514                                                        
CHEXA       1214       1    1513     777     940     951    1514     778+EL   XQ
+EL   XQ     939    1225                                                        
CHEXA       1215       1     827     878    1514    1043      17     877+EL   XR
+EL   XR    1515     313                                                        
CHEXA       1216       1    1043    1514    1225     990     313    1515+EL   XS
+EL   XS     953     989                                                        
CHEXA       1217       1     878     765     778    1514     877     764+EL   XT
+EL   XT     779    1515                                                        
CHEXA       1218       1    1514     778     939    1225    1515     779+EL   XU
+EL   XU     938     953                                                        
CHEXA       1219       1      17     877    1515     313     825     876+EL   XV
+EL   XV    1516     314                                                        
CHEXA       1220       1     313    1515     953     989     314    1516+EL   XW
+EL   XW    1223    1372                                                        
CHEXA       1221       1     877     764     779    1515     876     763+EL   XX
+EL   XX     780    1516                                                        
CHEXA       1222       1    1515     779     938     953    1516     780+EL   XY
+EL   XY    1190    1223                                                        
CHEXA       1223       1     825     876    1516     314     824     875+EL   XZ
+EL   XZ    1517     315                                                        
CHEXA       1224       1     314    1516    1223    1372     315    1517+EL   Y0
+EL   Y0     955    1171                                                        
CHEXA       1225       1     876     763     780    1516     875     762+EL   Y1
+EL   Y1     781    1517                                                        
CHEXA       1226       1    1516     780    1190    1223    1517     781+EL   Y2
+EL   Y2     728     955                                                        
CHEXA       1227       1     824     875    1517     315      20     874+EL   Y3
+EL   Y3    1518    1039                                                        
CHEXA       1228       1     315    1517     955    1171    1039    1518+EL   Y4
+EL   Y4    1221     263                                                        
CHEXA       1229       1     875     762     781    1517     874     761+EL   Y5
+EL   Y5     782    1518                                                        
CHEXA       1230       1    1517     781     728     955    1518     782+EL   Y6
+EL   Y6     935    1221                                                        
CHEXA       1231       1      20     874    1518    1039    1009     873+EL   Y7
+EL   Y7    1519     317                                                        
CHEXA       1232       1    1039    1518    1221     263     317    1519+EL   Y8
+EL   Y8    1220     985                                                        
CHEXA       1233       1     874     761     782    1518     873     760+EL   Y9
+EL   Y9     783    1519                                                        
CHEXA       1234       1    1518     782     935    1221    1519     783+EL   YA
+EL   YA    1066    1220                                                        
CHEXA       1235       1    1009     873    1519     317     821     872+EL   YB
+EL   YB    1520     318                                                        
CHEXA       1236       1     317    1519    1220     985     318    1520+EL   YC
+EL   YC     958     190                                                        
CHEXA       1237       1     873     760     783    1519     872     847+EL   YD
+EL   YD     784    1520                                                        
CHEXA       1238       1    1519     783    1066    1220    1520     784+EL   YE
+EL   YE     731     958                                                        
CHEXA       1239       1     821     872    1520     318    1011     871+EL   YF
+EL   YF    1521    1036                                                        
CHEXA       1240       1     318    1520     958     190    1036    1521+EL   YG
+EL   YG     959     422                                                        
CHEXA       1241       1     872     847     784    1520     871     848+EL   YH
+EL   YH     785    1521                                                        
CHEXA       1242       1    1520     784     731     958    1521     785+EL   YI
+EL   YI    1064     959                                                        
CHEXA       1243       1    1011     871    1521    1036    1012     870+EL   YJ
+EL   YJ    1522     320                                                        
CHEXA       1244       1    1036    1521     959     422     320    1522+EL   YK
+EL   YK     960     423                                                        
CHEXA       1245       1     871     848     785    1521     870     757+EL   YL
+EL   YL     786    1522                                                        
CHEXA       1246       1    1521     785    1064     959    1522     786+EL   YM
+EL   YM    1063     960                                                        
CHEXA       1247       1    1012     870    1522     320     290     869+EL   YN
+EL   YN    1523    1034                                                        
CHEXA       1248       1     320    1522     960     423    1034    1523+EL   YO
+EL   YO    1216     981                                                        
CHEXA       1249       1     870     757     786    1522     869     756+EL   YP
+EL   YP     787    1523                                                        
CHEXA       1250       1    1522     786    1063     960    1523     787+EL   YQ
+EL   YQ     734    1216                                                        
CHEXA       1251       1     290     869    1523    1034      26     868+EL   YR
+EL   YR    1524     322                                                        
CHEXA       1252       1    1034    1523    1216     981     322    1524+EL   YS
+EL   YS    1215     627                                                        
CHEXA       1253       1     869     756     787    1523     868     851+EL   YT
+EL   YT     788    1524                                                        
CHEXA       1254       1    1523     787     734    1216    1524     788+EL   YU
+EL   YU     929    1215                                                        
CHEXA       1255       1      26     868    1524     322     816     867+EL   YV
+EL   YV    1525    1032                                                        
CHEXA       1256       1     322    1524    1215     627    1032    1525+EL   YW
+EL   YW     963    1163                                                        
CHEXA       1257       1     868     851     788    1524     867     754+EL   YX
+EL   YX     789    1525                                                        
CHEXA       1258       1    1524     788     929    1215    1525     789+EL   YY
+EL   YY     736     963                                                        
CHEXA       1259       1     816     867    1525    1032     287     866+EL   YZ
+EL   YZ    1526     324                                                        
CHEXA       1260       1    1032    1525     963    1163     324    1526+EL   Z0
+EL   Z0     964     978                                                        
CHEXA       1261       1     867     754     789    1525     866     753+EL   Z1
+EL   Z1     790    1526                                                        
CHEXA       1262       1    1525     789     736     963    1526     790+EL   Z2
+EL   Z2     737     964                                                        
CHEXA       1263       1     287     866    1526     324    1017     865+EL   Z3
+EL   Z3    1527     325                                                        
CHEXA       1264       1     324    1526     964     978     325    1527+EL   Z4
+EL   Z4     965     977                                                        
CHEXA       1265       1     866     753     790    1526     865     752+EL   Z5
+EL   Z5     791    1527                                                        
CHEXA       1266       1    1526     790     737     964    1527     791+EL   Z6
+EL   Z6     738     965                                                        
CHEXA       1267       1    1017     865    1527     325    1018     864+EL   Z7
+EL   Z7    1528     326                                                        
CHEXA       1268       1     325    1527     965     977     326    1528+EL   Z8
+EL   Z8     966     976                                                        
CHEXA       1269       1     865     752     791    1527     864     751+EL   Z9
+EL   Z9     792    1528                                                        
CHEXA       1270       1    1527     791     738     965    1528     792+EL   ZA
+EL   ZA    1202     966                                                        
CHEXA       1271       1    1018     864    1528     326     812     863+EL   ZB
+EL   ZB    1529     327                                                        
CHEXA       1272       1     326    1528     966     976     327    1529+EL   ZC
+EL   ZC    1210     430                                                        
CHEXA       1273       1     864     751     792    1528     863     750+EL   ZD
+EL   ZD     793    1529                                                        
CHEXA       1274       1    1528     792    1202     966    1529     793+EL   ZE
+EL   ZE    1203    1210                                                        
CHEXA       1275       1     812     863    1529     327    1020     862+EL   ZF
+EL   ZF    1530    1027                                                        
CHEXA       1276       1     327    1529    1210     430    1027    1530+EL   ZG
+EL   ZG    1209     915                                                        
CHEXA       1277       1     863     750     793    1529     862     857+EL   ZH
+EL   ZH     794    1530                                                        
CHEXA       1278       1    1529     793    1203    1210    1530     794+EL   ZI
+EL   ZI     741    1209                                                        
CHEXA       1279       1    1020     862    1530    1027      33     861+EL   ZJ
+EL   ZJ    1531     329                                                        
CHEXA       1280       1    1027    1530    1209     915     329    1531+EL   ZK
+EL   ZK     969     620                                                        
CHEXA       1281       1     862     857     794    1530     861     858+EL   ZL
+EL   ZL     795    1531                                                        
CHEXA       1282       1    1530     794     741    1209    1531     795+EL   ZM
+EL   ZM     922     969                                                        
CHEXA       1283       1      33     861    1531     329     281     860+EL   ZN
+EL   ZN    1532    1025                                                        
CHEXA       1284       1     329    1531     969     620    1025    1532+EL   ZO
+EL   ZO     970     619                                                        
CHEXA       1285       1     861     858     795    1531     860     747+EL   ZP
+EL   ZP     796    1532                                                        
CHEXA       1286       1    1531     795     922     969    1532     796+EL   ZQ
+EL   ZQ    1206     970                                                        
CHEXA       1287       1     281     860    1532    1025    1023     807+EL   ZR
+EL   ZR     892     887                                                        
CHEXA       1288       1    1025    1532     970     619     887     892+EL   ZS
+EL   ZS     919    1314                                                        
CHEXA       1289       1     860     747     796    1532     807     746+EL   ZT
+EL   ZT     745     892                                                        
CHEXA       1290       1    1532     796    1206     970     892     745+EL   ZU
+EL   ZU     884     919                                                        
CHEXA       1291       1     884    1206     970     919    1051    1106+EL   ZV
+EL   ZV    1533    1320                                                        
CHEXA       1292       1     919     970     619    1314    1320    1533+EL   ZW
+EL   ZW     672     488                                                        
CHEXA       1293       1    1206     922     969     970    1106    1108+EL   ZX
+EL   ZX    1534    1533                                                        
CHEXA       1294       1     970     969     620     619    1533    1534+EL   ZY
+EL   ZY    1391     672                                                        
CHEXA       1295       1     922     741    1209     969    1108    1110+EL   ZZ
+EL   ZZ    1535    1534                                                        
CHEXA       1296       1     969    1209     915     620    1534    1535+EL  100
+EL  100     676    1391                                                        
CHEXA       1297       1     741    1203    1210    1209    1110    1112+EL  101
+EL  101    1536    1535                                                        
CHEXA       1298       1    1209    1210     430     915    1535    1536+EL  102
+EL  102    1395     676                                                        
CHEXA       1299       1    1203    1202     966    1210    1112    1114+EL  103
+EL  103    1537    1536                                                        
CHEXA       1300       1    1210     966     976     430    1536    1537+EL  104
+EL  104    1397    1395                                                        
CHEXA       1301       1    1202     738     965     966    1114    1116+EL  105
+EL  105    1538    1537                                                        
CHEXA       1302       1     966     965     977     976    1537    1538+EL  106
+EL  106     682    1397                                                        
CHEXA       1303       1     738     737     964     965    1116    1118+EL  107
+EL  107    1539    1538                                                        
CHEXA       1304       1     965     964     978     977    1538    1539+EL  108
+EL  108     684     682                                                        
CHEXA       1305       1     737     736     963     964    1118    1120+EL  109
+EL  109    1540    1539                                                        
CHEXA       1306       1     964     963    1163     978    1539    1540+EL  10A
+EL  10A     686     684                                                        
CHEXA       1307       1     736     929    1215     963    1120    1122+EL  10B
+EL  10B    1541    1540                                                        
CHEXA       1308       1     963    1215     627    1163    1540    1541+EL  10C
+EL  10C     688     686                                                        
CHEXA       1309       1     929     734    1216    1215    1122    1124+EL  10D
+EL  10D    1542    1541                                                        
CHEXA       1310       1    1215    1216     981     627    1541    1542+EL  10E
+EL  10E    1407     688                                                        
CHEXA       1311       1     734    1063     960    1216    1124    1126+EL  10F
+EL  10F    1543    1542                                                        
CHEXA       1312       1    1216     960     423     981    1542    1543+EL  10G
+EL  10G    1409    1407                                                        
CHEXA       1313       1    1063    1064     959     960    1126    1128+EL  10H
+EL  10H    1544    1543                                                        
CHEXA       1314       1     960     959     422     423    1543    1544+EL  10I
+EL  10I    1411    1409                                                        
CHEXA       1315       1    1064     731     958     959    1128    1130+EL  10J
+EL  10J    1545    1544                                                        
CHEXA       1316       1     959     958     190     422    1544    1545+EL  10K
+EL  10K    1413    1411                                                        
CHEXA       1317       1     731    1066    1220     958    1130    1132+EL  10L
+EL  10L    1546    1545                                                        
CHEXA       1318       1     958    1220     985     190    1545    1546+EL  10M
+EL  10M     698    1413                                                        
CHEXA       1319       1    1066     935    1221    1220    1132    1134+EL  10N
+EL  10N    1547    1546                                                        
CHEXA       1320       1    1220    1221     263     985    1546    1547+EL  10O
+EL  10O    1417     698                                                        
CHEXA       1321       1     935     728     955    1221    1134    1136+EL  10P
+EL  10P    1548    1547                                                        
CHEXA       1322       1    1221     955    1171     263    1547    1548+EL  10Q
+EL  10Q     702    1417                                                        
CHEXA       1323       1     728    1190    1223     955    1136    1138+EL  10R
+EL  10R    1549    1548                                                        
CHEXA       1324       1     955    1223    1372    1171    1548    1549+EL  10S
+EL  10S    1421     702                                                        
CHEXA       1325       1    1190     938     953    1223    1138    1140+EL  10T
+EL  10T    1550    1549                                                        
CHEXA       1326       1    1223     953     989    1372    1549    1550+EL  10U
+EL  10U    1423    1421                                                        
CHEXA       1327       1     938     939    1225     953    1140    1142+EL  10V
+EL  10V    1551    1550                                                        
CHEXA       1328       1     953    1225     990     989    1550    1551+EL  10W
+EL  10W    1425    1423                                                        
CHEXA       1329       1     939     940     951    1225    1142    1144+EL  10X
+EL  10X    1552    1551                                                        
CHEXA       1330       1    1225     951    1369     990    1551    1552+EL  10Y
+EL  10Y    1427    1425                                                        
CHEXA       1331       1     940    1073     950     951    1144    1146+EL  10Z
+EL  10Z    1553    1552                                                        
CHEXA       1332       1     951     950    1176    1369    1552    1553+EL  110
+EL  110    1429    1427                                                        
CHEXA       1333       1    1073     722     949     950    1146    1148+EL  111
+EL  111    1554    1553                                                        
CHEXA       1334       1     950     949     993    1176    1553    1554+EL  112
+EL  112    1431    1429                                                        
CHEXA       1335       1     722    1184    1229     949    1148    1150+EL  113
+EL  113    1555    1554                                                        
CHEXA       1336       1     949    1229     641     993    1554    1555+EL  114
+EL  114     716    1431                                                        
CHEXA       1337       1    1184    1183     947    1229    1150    1152+EL  115
+EL  115    1556    1555                                                        
CHEXA       1338       1    1229     947     254     641    1555    1556+EL  116
+EL  116    1435     716                                                        
CHEXA       1339       1    1183    1329     800     947    1152    1328+EL  117
+EL  117    1331    1556                                                        
CHEXA       1340       1     947     800     893     254    1556    1331+EL  118
+EL  118     644    1435                                                        
CHEXA       1341       1    1051    1106    1533    1320    1318    1105+EL  119
+EL  119    1557    1319                                                        
CHEXA       1342       1    1320    1533     672     488    1319    1557+EL  11A
+EL  11A    1390     489                                                        
CHEXA       1343       1    1106    1108    1534    1533    1105    1107+EL  11B
+EL  11B    1558    1557                                                        
CHEXA       1344       1    1533    1534    1391     672    1557    1558+EL  11C
+EL  11C     673    1390                                                        
CHEXA       1345       1    1108    1110    1535    1534    1107    1109+EL  11D
+EL  11D    1559    1558                                                        
CHEXA       1346       1    1534    1535     676    1391    1558    1559+EL  11E
+EL  11E     675     673                                                        
CHEXA       1347       1    1110    1112    1536    1535    1109    1111+EL  11F
+EL  11F    1560    1559                                                        
CHEXA       1348       1    1535    1536    1395     676    1559    1560+EL  11G
+EL  11G     677     675                                                        
CHEXA       1349       1    1112    1114    1537    1536    1111    1113+EL  11H
+EL  11H    1561    1560                                                        
CHEXA       1350       1    1536    1537    1397    1395    1560    1561+EL  11I
+EL  11I     679     677                                                        
CHEXA       1351       1    1114    1116    1538    1537    1113    1115+EL  11J
+EL  11J    1562    1561                                                        
CHEXA       1352       1    1537    1538     682    1397    1561    1562+EL  11K
+EL  11K     681     679                                                        
CHEXA       1353       1    1116    1118    1539    1538    1115    1117+EL  11L
+EL  11L    1563    1562                                                        
CHEXA       1354       1    1538    1539     684     682    1562    1563+EL  11M
+EL  11M    1402     681                                                        
CHEXA       1355       1    1118    1120    1540    1539    1117    1119+EL  11N
+EL  11N    1564    1563                                                        
CHEXA       1356       1    1539    1540     686     684    1563    1564+EL  11O
+EL  11O    1404    1402                                                        
CHEXA       1357       1    1120    1122    1541    1540    1119    1121+EL  11P
+EL  11P    1565    1564                                                        
CHEXA       1358       1    1540    1541     688     686    1564    1565+EL  11Q
+EL  11Q     687    1404                                                        
CHEXA       1359       1    1122    1124    1542    1541    1121    1123+EL  11R
+EL  11R    1566    1565                                                        
CHEXA       1360       1    1541    1542    1407     688    1565    1566+EL  11S
+EL  11S    1408     687                                                        
CHEXA       1361       1    1124    1126    1543    1542    1123    1125+EL  11T
+EL  11T    1567    1566                                                        
CHEXA       1362       1    1542    1543    1409    1407    1566    1567+EL  11U
+EL  11U     691    1408                                                        
CHEXA       1363       1    1126    1128    1544    1543    1125    1127+EL  11V
+EL  11V    1568    1567                                                        
CHEXA       1364       1    1543    1544    1411    1409    1567    1568+EL  11W
+EL  11W     693     691                                                        
CHEXA       1365       1    1128    1130    1545    1544    1127    1129+EL  11X
+EL  11X    1569    1568                                                        
CHEXA       1366       1    1544    1545    1413    1411    1568    1569+EL  11Y
+EL  11Y     695     693                                                        
CHEXA       1367       1    1130    1132    1546    1545    1129    1131+EL  11Z
+EL  11Z    1570    1569                                                        
CHEXA       1368       1    1545    1546     698    1413    1569    1570+EL  120
+EL  120    1416     695                                                        
CHEXA       1369       1    1132    1134    1547    1546    1131    1133+EL  121
+EL  121    1571    1570                                                        
CHEXA       1370       1    1546    1547    1417     698    1570    1571+EL  122
+EL  122    1418    1416                                                        
CHEXA       1371       1    1134    1136    1548    1547    1133    1135+EL  123
+EL  123    1572    1571                                                        
CHEXA       1372       1    1547    1548     702    1417    1571    1572+EL  124
+EL  124    1420    1418                                                        
CHEXA       1373       1    1136    1138    1549    1548    1135    1137+EL  125
+EL  125    1573    1572                                                        
CHEXA       1374       1    1548    1549    1421     702    1572    1573+EL  126
+EL  126     703    1420                                                        
CHEXA       1375       1    1138    1140    1550    1549    1137    1139+EL  127
+EL  127    1574    1573                                                        
CHEXA       1376       1    1549    1550    1423    1421    1573    1574+EL  128
+EL  128    1424     703                                                        
CHEXA       1377       1    1140    1142    1551    1550    1139    1141+EL  129
+EL  129    1575    1574                                                        
CHEXA       1378       1    1550    1551    1425    1423    1574    1575+EL  12A
+EL  12A    1426    1424                                                        
CHEXA       1379       1    1142    1144    1552    1551    1141    1143+EL  12B
+EL  12B    1576    1575                                                        
CHEXA       1380       1    1551    1552    1427    1425    1575    1576+EL  12C
+EL  12C     709    1426                                                        
CHEXA       1381       1    1144    1146    1553    1552    1143    1145+EL  12D
+EL  12D    1577    1576                                                        
CHEXA       1382       1    1552    1553    1429    1427    1576    1577+EL  12E
+EL  12E     711     709                                                        
CHEXA       1383       1    1146    1148    1554    1553    1145    1147+EL  12F
+EL  12F    1578    1577                                                        
CHEXA       1384       1    1553    1554    1431    1429    1577    1578+EL  12G
+EL  12G    1432     711                                                        
CHEXA       1385       1    1148    1150    1555    1554    1147    1149+EL  12H
+EL  12H    1579    1578                                                        
CHEXA       1386       1    1554    1555     716    1431    1578    1579+EL  12I
+EL  12I     715    1432                                                        
CHEXA       1387       1    1150    1152    1556    1555    1149    1151+EL  12J
+EL  12J    1580    1579                                                        
CHEXA       1388       1    1555    1556    1435     716    1579    1580+EL  12K
+EL  12K    1436     715                                                        
CHEXA       1389       1    1152    1328    1331    1556    1151    1079+EL  12L
+EL  12L    1332    1580                                                        
CHEXA       1390       1    1556    1331     644    1435    1580    1332+EL  12M
+EL  12M     645    1436                                                        
CHEXA       1391       1    1318    1105    1557    1319    1049    1259+EL  12N
+EL  12N    1308    1310                                                        
CHEXA       1392       1    1319    1557    1390     489    1310    1308+EL  12O
+EL  12O    1255     333                                                        
CHEXA       1393       1    1105    1107    1558    1557    1259    1103+EL  12P
+EL  12P    1307    1308                                                        
CHEXA       1394       1    1557    1558     673    1390    1308    1307+EL  12Q
+EL  12Q     669    1255                                                        
CHEXA       1395       1    1107    1109    1559    1558    1103    1261+EL  12R
+EL  12R    1306    1307                                                        
CHEXA       1396       1    1558    1559     675     673    1307    1306+EL  12S
+EL  12S    1253     669                                                        
CHEXA       1397       1    1109    1111    1560    1559    1261    1262+EL  12T
+EL  12T    1305    1306                                                        
CHEXA       1398       1    1559    1560     677     675    1306    1305+EL  12U
+EL  12U     667    1253                                                        
CHEXA       1399       1    1111    1113    1561    1560    1262    1263+EL  12V
+EL  12V    1304    1305                                                        
CHEXA       1400       1    1560    1561     679     677    1305    1304+EL  12W
+EL  12W     666     667                                                        
CHEXA       1401       1    1113    1115    1562    1561    1263    1264+EL  12X
+EL  12X    1303    1304                                                        
CHEXA       1402       1    1561    1562     681     679    1304    1303+EL  12Y
+EL  12Y    1250     666                                                        
CHEXA       1403       1    1115    1117    1563    1562    1264    1265+EL  12Z
+EL  12Z    1302    1303                                                        
CHEXA       1404       1    1562    1563    1402     681    1303    1302+EL  130
+EL  130    1343    1250                                                        
CHEXA       1405       1    1117    1119    1564    1563    1265    1097+EL  131
+EL  131    1301    1302                                                        
CHEXA       1406       1    1563    1564    1404    1402    1302    1301+EL  132
+EL  132     663    1343                                                        
CHEXA       1407       1    1119    1121    1565    1564    1097    1096+EL  133
+EL  133    1300    1301                                                        
CHEXA       1408       1    1564    1565     687    1404    1301    1300+EL  134
+EL  134    1247     663                                                        
CHEXA       1409       1    1121    1123    1566    1565    1096    1095+EL  135
+EL  135    1299    1300                                                        
CHEXA       1410       1    1565    1566    1408     687    1300    1299+EL  136
+EL  136     343    1247                                                        
CHEXA       1411       1    1123    1125    1567    1566    1095    1269+EL  137
+EL  137    1298    1299                                                        
CHEXA       1412       1    1566    1567     691    1408    1299    1298+EL  138
+EL  138    1347     343                                                        
CHEXA       1413       1    1125    1127    1568    1567    1269    1093+EL  139
+EL  139    1297    1298                                                        
CHEXA       1414       1    1567    1568     693     691    1298    1297+EL  13A
+EL  13A     659    1347                                                        
CHEXA       1415       1    1127    1129    1569    1568    1093    1092+EL  13B
+EL  13B    1296    1297                                                        
CHEXA       1416       1    1568    1569     695     693    1297    1296+EL  13C
+EL  13C     346     659                                                        
CHEXA       1417       1    1129    1131    1570    1569    1092    1272+EL  13D
+EL  13D    1295    1296                                                        
CHEXA       1418       1    1569    1570    1416     695    1296    1295+EL  13E
+EL  13E    1350     346                                                        
CHEXA       1419       1    1131    1133    1571    1570    1272    1273+EL  13F
+EL  13F    1294    1295                                                        
CHEXA       1420       1    1570    1571    1418    1416    1295    1294+EL  13G
+EL  13G     348    1350                                                        
CHEXA       1421       1    1133    1135    1572    1571    1273    1089+EL  13H
+EL  13H    1293    1294                                                        
CHEXA       1422       1    1571    1572    1420    1418    1294    1293+EL  13I
+EL  13I     655     348                                                        
CHEXA       1423       1    1135    1137    1573    1572    1089    1275+EL  13J
+EL  13J    1292    1293                                                        
CHEXA       1424       1    1572    1573     703    1420    1293    1292+EL  13K
+EL  13K    1239     655                                                        
CHEXA       1425       1    1137    1139    1574    1573    1275    1087+EL  13L
+EL  13L    1291    1292                                                        
CHEXA       1426       1    1573    1574    1424     703    1292    1291+EL  13M
+EL  13M    1238    1239                                                        
CHEXA       1427       1    1139    1141    1575    1574    1087    1277+EL  13N
+EL  13N    1290    1291                                                        
CHEXA       1428       1    1574    1575    1426    1424    1291    1290+EL  13O
+EL  13O     352    1238                                                        
CHEXA       1429       1    1141    1143    1576    1575    1277    1085+EL  13P
+EL  13P    1289    1290                                                        
CHEXA       1430       1    1575    1576     709    1426    1290    1289+EL  13Q
+EL  13Q     651     352                                                        
CHEXA       1431       1    1143    1145    1577    1576    1085    1084+EL  13R
+EL  13R    1288    1289                                                        
CHEXA       1432       1    1576    1577     711     709    1289    1288+EL  13S
+EL  13S     354     651                                                        
CHEXA       1433       1    1145    1147    1578    1577    1084    1083+EL  13T
+EL  13T    1287    1288                                                        
CHEXA       1434       1    1577    1578    1432     711    1288    1287+EL  13U
+EL  13U    1358     354                                                        
CHEXA       1435       1    1147    1149    1579    1578    1083    1281+EL  13V
+EL  13V    1286    1287                                                        
CHEXA       1436       1    1578    1579     715    1432    1287    1286+EL  13W
+EL  13W    1359    1358                                                        
CHEXA       1437       1    1149    1151    1580    1579    1281    1282+EL  13X
+EL  13X    1285    1286                                                        
CHEXA       1438       1    1579    1580    1436     715    1286    1285+EL  13Y
+EL  13Y     357    1359                                                        
CHEXA       1439       1    1151    1079    1332    1580    1282    1080+EL  13Z
+EL  13Z    1284    1285                                                        
CHEXA       1440       1    1580    1332     645    1436    1285    1284+EL  140
+EL  140     605     357                                                        
ENDDATA
